660
	Energy:   16138.0440242
C        -10.35051        1.42979        4.17390
C        -11.88593        1.02866        3.74606
C        -12.37772       -0.59036        3.42163
C        -12.49353       -1.47486        4.72296
C        -12.22592       -0.68682        6.00729
C        -11.31206       -1.04288        7.21696
C         -8.69122       -0.10744        7.90446
C         -8.49309        0.79109        6.55545
C         -9.32622        2.35438        6.64296
C        -10.23383        2.68272        5.43639
C        -11.50097        3.82350        5.80273
C        -12.84670        3.29172        5.30047
C        -12.80426        1.69947        4.83325
C        -12.87214        0.75257        6.03126
C        -13.19854        1.38600        7.31934
C        -12.38709        0.98163        8.48983
C        -11.21898        0.07664        8.27781
C         -9.86108        0.57851        8.76823
C         -9.96603        2.13064        9.27646
C         -9.80798        3.14303        8.14087
C        -10.82388        4.56981        8.39077
C        -11.67631        4.93168        7.18760
C        -13.16879        5.79698        7.61625
C        -14.38520        5.12910        6.96109
C        -14.00699        3.67482        6.32178
C        -14.04706        2.63875        7.41133
C        -14.59709        3.01070        8.73797
C        -13.83359        2.50536        9.93291
C        -12.50190        1.84257        9.69197
C        -11.23941        2.48784       10.23214
C        -11.59935        3.90457       10.93376
C        -11.52368        5.06785        9.94927
C        -12.76223        6.28114       10.31606
C        -13.61446        6.65364        9.11679
C        -15.68909        5.11841        7.95848
C        -15.58082        3.95373        8.91607
C        -14.09878        3.18574       11.21722
C        -12.96163        3.94185       11.86964
C         -9.11777        0.35219        3.84247
C         -8.10692        0.03098        5.07706
C         -7.10326       -0.16607        2.05634
C         -6.12246       -0.45796        3.20579
C         -5.03224        0.11555        0.32017
C         -4.03583       -0.18380        1.47282
C         -8.70160       -0.36341        2.37181
C         -3.11993        0.39523       -1.25057
C         -2.15017        0.09621       -0.12659
C         -6.78694       -0.95668        4.64712
C         -6.51788       -0.24684        0.62126
C         -4.67663       -0.82035        2.75932
C         -4.52638        0.09746       -1.15965
C         -2.55383       -0.51377        1.11691
C         -9.44217       -1.53873        1.35233
C         -6.32061       -2.56735        5.05978
C         -7.14080       -1.29472       -0.27074
C         -4.24724       -2.23675        3.07683
C         -5.09337       -0.99626       -2.01509
C         -2.14104       -1.92254        1.39824
C        -10.80330       -2.63832        1.52704
C         -8.26616       -2.18248        0.40064
C         -5.34628       -3.14340        3.81858
C         -6.16029       -1.90844       -1.29560
C         -3.26490       -2.83955        2.01463
C         -4.18151       -1.79728       -2.76966
C         -1.39129       -2.61936        0.38607
C        -10.36952       -4.16177        1.90279
C         -7.82852       -3.61754        0.76453
C         -5.98923       -4.21934        2.91869
C         -5.73395       -3.36565       -0.96865
C         -3.89840       -3.93542        1.11754
C         -3.85353       -2.98147       -2.52213
C         -8.64050       -4.37982        2.02334
C         -7.55062       -4.73831        3.32924
C         -1.98248       -3.70810       -0.47793
C         -6.36900       -3.98148        0.32476
C         -5.40033       -4.28227        1.44115
C         -4.30887       -3.80485       -1.44356
C         -3.35267       -4.13287       -0.34271
C        -19.25074       -7.22813        0.33274
C        -19.72302       -5.82180        0.06675
C        -16.20745       -6.18521        0.49095
C        -16.66695       -4.76509        0.21126
C        -13.23573       -5.13321        1.10595
C        -13.67541       -3.69342        0.78048
C        -17.55524       -7.29500        0.84356
C        -18.44468       -4.59042        0.26748
C        -14.59268       -6.26465        1.21575
C        -15.44089       -3.53005        0.60343
C        -11.70808       -5.27799        2.01435
C        -12.53536       -2.42133        1.30303
C        -17.43273       -7.90830        2.23390
C        -18.88258       -3.45823        1.18909
C        -14.63005       -6.97395        2.56526
C        -16.01043       -2.42083        1.48895
C        -11.90980       -6.15812        3.35575
C        -13.27310       -1.27820        2.16401
C        -18.92302       -8.17156        2.97240
C        -20.38642       -3.78693        1.95014
C        -16.17861       -7.25381        3.09992
C        -17.56997       -2.80479        2.06454
C        -13.51870       -6.39295        3.62416
C        -14.84411       -1.78911        2.54283
C        -19.30928       -7.00947        3.86606
C        -20.17991       -4.31223        3.36241
C        -16.66088       -6.13145        4.00137
C        -17.49248       -3.43252        3.44790
C        -14.10222       -5.26876        4.47984
C        -14.86153       -2.55869        3.86729
C        -18.21301       -5.87795        4.06039
C        -18.66069       -4.45798        3.81931
C        -15.62187       -5.00704        4.34497
C        -16.03758       -3.59312        4.05886
C        -13.10510       -4.17011        5.02533
C        -13.46924       -2.71444        4.65113
C        -11.70295       -7.12507       13.89615
C        -10.34753       -7.02025       14.57363
C        -10.82102       -5.67330       11.66023
C         -9.42012       -5.47611       12.21182
C        -10.32534       -4.09927        9.42600
C         -8.90376       -3.77156        9.88524
C        -11.73274       -6.77011       12.36099
C        -10.32615       -2.22820        7.43294
C         -8.85921       -1.79042        7.83875
C         -9.11935       -6.61342       13.43589
C        -11.04942       -5.27585       10.16251
C         -8.36633       -4.93028       10.98526
C        -10.77348       -3.63854        7.96231
C         -8.04145       -3.02733        8.64351
C        -12.28018       -7.85294       11.46342
C         -8.40482       -7.84882       12.88842
C        -11.63396       -6.34675        9.29391
C         -7.64922       -6.08927       10.28757
C        -11.42131       -4.74655        7.11331
C         -7.29025       -4.15045        7.74682
C        -12.67243       -9.20173       12.17708
C         -8.89969       -9.32120       13.79594
C        -11.89458       -7.72989        9.96192
C         -7.93290       -7.63313       11.16063
C        -11.44076       -6.17360        7.78145
C         -7.40776       -5.76375        8.53581
C        -11.73409       -4.68010        5.58957
C         -7.08738       -3.86198        6.00189
C        -12.04550      -10.35158       11.76279
C         -9.46769      -10.39866       12.88528
C        -11.18388       -8.92387        9.37176
C         -8.50856       -8.71496       10.26208
C        -10.75190       -7.32395        7.04852
C         -8.01736       -6.86136        7.63866
C        -11.03439       -5.80377        4.73374
C        -10.89086      -10.04815       10.57028
C         -9.48736       -9.91796       11.15832
C         -7.75880       -5.02686        5.06358
C        -10.19180       -8.46016        8.11531
C         -8.76386       -8.18346        8.57422
C        -10.03480       -6.77978        5.66907
C         -8.50668       -6.33234        5.99014
C        -31.99079       -0.01625        8.87368
C        -31.31708       -0.94913        9.85594
C        -34.54586        0.11219       10.01044
C        -33.00853       -0.87662        7.95643
C        -35.04753       -0.58798       11.25774
C        -32.23774       -2.26714       12.25055
C        -34.39423       -0.96605        8.58931
C        -31.59884       -2.42736        9.81253
C        -33.57949       -2.27910       12.94918
C        -32.45417       -2.34611        7.42314
C        -32.07703       -3.12566       11.04458
C        -31.79223       -3.13113        8.53714
C        -34.68063       -3.18276       12.06069
C        -35.37510       -2.33068       10.99696
C        -35.11742       -2.54905        8.24374
C        -33.17482       -3.36791        6.45746
C        -35.63364       -3.25558        9.48251
C        -32.75221       -4.47798       10.89409
C        -34.59933       -3.64422        6.93257
C        -31.80593       -4.65025        8.54834
C        -34.15778       -4.63892       11.43769
C        -32.30949       -4.72708        6.06762
C        -32.31648       -5.36506        9.75033
C        -31.70594       -5.41899        7.29453
C        -34.99527       -5.72769       10.49758
C        -35.66860       -5.03151        9.31107
C        -35.00947       -5.31094        6.62009
C        -32.67999       -5.82508        5.00998
C        -35.60637       -6.03653        7.84400
C        -32.77259       -6.80941        9.58472
C        -34.18519       -6.33722        5.41013
C        -22.86394       -5.19237        3.61600
C        -31.39514       -6.97610        7.32186
C        -23.21554       -4.74732        2.20158
C        -34.20262       -7.12984       10.04345
C        -25.51101       -6.14173        4.14846
C        -25.99007       -5.66743        2.77790
C        -28.13181       -7.01355        4.91830
C        -28.71427       -6.44777        3.61313
C        -32.04199       -7.76345        8.55265
C        -23.89269       -6.23379        4.31902
C        -31.35125       -6.86556        4.69645
C        -26.53019       -7.12781        4.95069
C        -30.69793       -7.48580        6.01208
C        -29.14024       -7.91876        5.88153
C        -24.68725       -5.43848        1.69472
C        -27.52086       -6.29379        2.41771
C        -35.45180       -7.81452        7.79758
C        -34.80778       -8.40491        9.17467
C        -30.30195       -6.94858        3.37844
C        -34.62912       -7.92943        5.08223
C        -24.48336       -6.63654        0.76731
C        -34.55116       -8.79586        3.62015
C        -27.44649       -7.51503        1.50406
C        -30.32050       -8.28639        2.50321
C        -32.27915       -9.32757        8.78442
C        -35.32555       -8.73204        6.31684
C        -35.96926       -9.56500        3.27561
C        -23.36637       -7.65689        4.42766
C        -22.76760       -6.89222        0.38355
C        -25.98913       -8.50246        5.23019
C        -28.54322       -9.31178        6.35076
C        -25.80890       -7.81170        0.91283
C        -33.77945       -9.75490        9.12255
C        -36.33423      -10.03070        1.83345
C        -28.73156       -8.67869        1.84591
C        -33.26560       -9.37138        2.64496
C        -22.01836       -7.86762        4.05519
C        -31.55129       -9.45554        2.82473
C        -31.20258      -10.32349        9.34633
C        -24.51132       -8.79546        4.60839
C        -37.73075      -10.62634        1.48699
C        -36.64757      -10.34527        4.41582
C        -27.08825       -9.64213        5.59256
C        -35.85596      -10.33302        5.87998
C        -29.43870      -10.57487        6.99808
C        -38.05426      -10.97322       -0.00101
C        -23.10697       -9.83376        2.67571
C        -22.32022       -8.17061        0.63222
C        -29.90282      -10.84118        8.57757
C        -21.69324       -9.11300        3.22516
C        -33.80081      -10.59200        1.71585
C        -31.53034      -11.05651       10.79944
C        -25.87899      -10.72010        3.45522
C        -35.18626      -10.55965        1.00982
C        -25.31463       -9.20349        1.21997
C        -24.38146      -10.03119        3.75082
C        -39.34042      -11.60286       -0.12777
C        -38.39388      -11.45441        2.61960
C        -33.90581      -11.32463        9.82239
C        -28.21153      -10.08002        2.22832
C        -28.54665      -11.65377        4.60844
C        -27.02857      -10.89667        4.70783
C        -23.55124       -9.25694        1.32527
C        -29.42657      -11.89034        6.10626
C        -37.55110      -11.54867        3.93432
C        -32.94439      -11.56585       11.12884
C        -31.00154      -10.92557        3.22928
C        -26.46605      -10.19424        2.14731
C        -35.26165      -11.90919        6.21653
C        -35.56954      -11.64604       -0.02147
C        -29.28627      -11.05744        3.26752
C        -30.42544      -11.69818       11.62910
C        -33.97234      -12.50443        7.18036
C        -36.91069      -11.50852       -0.79692
C        -33.81441      -12.66182        8.88959
C        -39.98735      -12.42378        0.96327
C        -29.30061      -12.13856        9.29853
C        -33.27473      -11.99389        2.06051
C        -32.72078      -13.08170        6.31171
C        -39.33685      -12.64366        2.22994
C        -32.95152      -13.01585        4.60542
C        -29.30325      -12.29426       10.83762
C        -29.90045      -13.30600        7.02280
C        -32.23564      -12.11752        3.32900
C        -30.60494      -12.21057       13.11814
C        -37.13013      -12.64132       -1.65431
C        -37.00694      -12.92852        4.22856
C        -35.64011      -12.96061        4.98938
C        -32.90591      -12.92611       12.17266
C        -35.02015      -13.06178        0.29769
C        -31.90998      -12.88377       13.51450
C        -29.17841      -13.44388        8.50243
C        -31.47092      -13.78273        7.24633
C        -34.46121      -13.52039        4.17284
C        -34.18451      -13.16256        1.60620
C        -34.81080      -13.97194        2.71390
C        -32.93479      -14.00153        9.66705
C        -29.36909      -12.67148       13.89343
C        -38.79854      -14.00487        2.52343
C        -32.74444      -14.24477       11.41327
C        -37.38284      -14.03068        3.17967
C        -28.49690      -13.37535       11.54861
C        -36.58840      -14.02368       -1.36526
C        -31.77104      -14.57728        8.82479
C        -29.17651      -14.78023        9.50861
C        -28.31734      -13.33416       13.05301
C        -35.81492      -14.30626       -0.18319
C        -36.18892      -14.59487        2.36232
C        -29.34819      -13.01963       15.41095
C        -36.43292      -15.11986        0.90581
C        -31.62758      -14.10827       14.69705
C        -38.93971      -15.03480        1.52674
C        -30.52871      -13.79844       15.96764
C        -28.29164      -14.70662       10.85621
C        -30.55485      -15.36798        9.80074
C        -31.74906      -15.43517       12.29590
C        -37.78113      -15.58698        0.73145
C        -31.35347      -15.46831       14.04473
C        -27.33142      -14.22729       13.75163
C        -30.67055      -16.05530       11.44291
C        -28.02574      -15.91044       11.94037
C        -27.02790      -15.58811       13.16239
C        -29.30325      -16.60117       12.42012
C        -30.12733      -16.41695       14.95216
C        -29.17999      -17.01013       14.15182
C        -24.53963       14.27289       22.30505
C        -23.55093       13.65044       23.26491
C        -27.33970       13.76783       22.53348
C        -25.20495       13.57349       21.23548
C        -27.88131       12.86333       23.61269
C        -24.53698       11.81242       25.27491
C        -26.66153       13.30693       21.35177
C        -23.20848       12.26474       23.15410
C        -26.02640       11.54230       25.38746
C        -24.35698       12.40346       20.71042
C        -23.74423       11.31820       24.18467
C        -23.30484       11.78140       21.66755
C        -26.76765       10.77131       24.42566
C        -27.74992       11.44002       23.51706
C        -27.13813       11.88867       20.92515
C        -24.95513       11.44758       19.60473
C        -27.74083       10.96403       22.01327
C        -24.34213       10.02675       23.61907
C        -26.43022       11.16352       19.71379
C        -23.04667       10.32186       21.39355
C        -25.86745        9.74857       23.73918
C        -24.09240       10.32911       18.98364
C        -23.65913        9.40602       22.41693
C        -23.02279        9.78051       19.94176
C        -26.47947        8.87628       22.64046
C        -27.52331        9.48003       21.73632
C        -26.92746        9.75737       19.17596
C        -24.57822        9.33284       17.71686
C        -27.58076        8.88672       20.26471
C        -24.16344        8.12068       21.87262
C        -26.26155        8.94913       17.82643
C        -15.01786        7.43282       12.31473
C        -22.63434        8.29399       19.69333
C        -15.88315        7.80524       11.12312
C        -25.64401        7.83223       21.99625
C        -17.45808        8.02131       14.30597
C        -18.34592        8.38817       13.12883
C        -19.93260        8.09944       16.23885
C        -20.86491        8.49717       15.07694
C        -23.39115        7.36868       20.77541
C        -15.92967        7.29717       13.83832
C        -23.21206        8.53504       17.03508
C        -18.36112        7.59823       15.75993
C        -22.18353        8.04325       18.15116
C        -20.74394        7.48951       17.65363
C        -17.60549        8.04656       11.55439
C        -20.08834        8.38789       13.51327
C        -27.42593        7.31141       20.03443
C        -26.23928        6.78562       21.02118
C        -22.61846        8.38318       15.42726
C        -27.25641        7.59429       17.26910
C        -18.54828        7.21507       10.67429
C        -27.79107        6.99542       15.69579
C        -20.94338        7.59029       12.52457
C        -23.50373        7.56199       14.27723
C        -23.75595        5.87724       20.86852
C        -27.91948        6.79107       18.50439
C        -29.39377        6.17056       15.45683
C        -15.78298        5.92866       14.49829
C        -17.66575        6.12102        9.78541
C        -18.08570        6.18427       16.26860
C        -20.32309        6.02560       18.11424
C        -19.95252        6.70729       11.49585
C        -25.30089        5.56087       21.01620
C        -30.07807        5.53406       13.95247
C        -22.33556        6.84313       13.24818
C        -26.69144        6.69714       14.45088
C        -14.98868        4.90886       13.55956
C        -24.93007        6.58005       14.70379
C        -22.76479        4.80186       21.35006
C        -17.18671        5.37897       15.24351
C        -31.56488        4.55609       13.67232
C        -30.01393        5.50162       16.70548
C        -19.41170        5.41219       16.96104
C        -28.95642        5.51738       18.11042
C        -21.43696        4.96390       18.83617
C        -32.04368        3.73131       12.16543
C        -17.49882        4.31066       12.95524
C        -17.52705        4.93847       10.47274
C        -21.55859        4.40240       20.41116
C        -15.98980        4.11383       12.74784
C        -27.38443        5.42761       13.53673
C        -23.21109        3.74023       22.57163
C        -19.64926        4.55600       14.54705
C        -28.98573        5.28896       12.90913
C        -19.73052        5.32671       12.07000
C        -18.08586        4.58051       14.31376
C        -33.32907        2.51804       11.84208
C        -32.13318        3.89682       14.91676
C        -25.69352        4.18193       21.58657
C        -22.00418        5.41894       13.73968
C        -21.90062        4.38433       16.25587
C        -20.27642        4.63809       15.95041
C        -18.32741        4.72003       11.76961
C        -22.33990        4.14264       17.81668
C        -31.12377        4.18233       16.34804
C        -24.70293        3.42156       22.69141
C        -24.51369        5.11537       15.16309
C        -20.52516        4.93117       13.38505
C        -28.55608        4.05855       18.58781
C        -29.37536        3.94605       11.98597
C        -22.86826        4.80216       15.04253
C        -22.21245        2.60182       23.13119
C        -27.07000        3.73738       19.20711
C        -30.84653        3.56163       11.23330
C        -26.66601        3.29555       20.74217
C        -33.85579        1.83579       13.08971
C        -21.37522        2.84933       20.60414
C        -26.89821        4.06774       14.07365
C        -25.93833        3.42755       18.11723
C        -33.02838        2.39131       14.57875
C        -26.46855        3.41635       16.62667
C        -21.20850        2.16291       22.07281
C        -23.13366        2.85233       18.52211
C        -25.80486        4.05189       15.29103
C        -22.59642        1.43554       24.29751
C        -30.94220        2.11649       10.40819
C        -30.58372        2.87818       16.93237
C        -29.04611        3.00738       17.51995
C        -25.06335        1.96308       23.33624
C        -28.78970        2.70711       12.64251
C        -24.06748        1.08333       24.38768
C        -22.28299        2.04678       19.64944
C        -24.72160        2.58100       18.69522
C        -27.96145        2.79253       16.45176
C        -27.91095        2.89614       13.89353
C        -28.47027        2.27477       15.13686
C        -26.20170        1.81929       20.91698
C        -21.55838        0.18640       24.67752
C        -32.38889        1.22531       15.33262
C        -25.93441        1.13282       22.40026
C        -30.91245        1.62968       16.00291
C        -20.94763        0.64082       22.14296
C        -30.29256        1.02275       11.23036
C        -25.12977        1.47480       19.85964
C        -22.72303        0.67393       20.20147
C        -20.64816       -0.15115       23.50605
C        -29.58950        1.41185       12.49695
C        -29.76573        1.42820       15.03068
C        -21.87807       -1.14431       25.70723
C        -30.11013        0.76366       13.74401
C        -24.38700       -0.50245       24.86702
C        -32.47051       -0.15672       14.48429
C        -23.34079       -1.53035       25.78198
C        -21.82906       -0.11630       21.16462
C        -24.19073        0.36733       20.29606
C        -25.56751       -0.38328       22.46452
C        -31.22486       -0.27155       13.63270
C        -25.25758       -1.23620       23.84863
C        -20.35832       -1.66475       23.39508
C        -24.62954       -0.73829       21.33107
C        -22.22201       -1.50317       21.58449
C        -21.28630       -2.32959       22.40263
C        -23.68569       -1.84634       21.68242
C        -24.85560       -2.75959       23.74195
C        -24.05217       -2.97992       22.64897
C        -20.66589       -4.62040       23.27220
C        -19.65561       -4.08278       24.25230
C        -23.43226       -5.39870       23.42533
C        -20.99140       -6.03654       23.29212
C        -24.24788       -5.33097       24.68694
C        -21.06261       -3.94887       26.66719
C        -22.41753       -6.46694       23.33147
C        -19.15539       -5.18270       25.24626
C        -22.51783       -4.36266       26.73039
C        -19.94652       -6.98276       23.63328
C        -19.96268       -5.26142       26.53396
C        -18.86581       -6.57177       24.59978
C        -22.77676       -6.07014       26.75241
C        -23.82524       -6.51545       25.73861
C        -22.68540       -7.83077       23.82692
C        -20.24418       -8.39281       23.39079
C        -23.49245       -7.97257       25.10019
C        -20.17913       -6.88799       27.04092
C        -21.64445       -8.84589       23.49448
C        -18.29377       -7.80161       25.32020
C        -21.63096       -7.31686       27.13000
C        -19.15724       -9.35668       23.42977
C        -19.08243       -8.13713       26.58048
C        -17.99408       -9.02663       24.36698
C        -21.90592       -9.00243       26.86344
C        -23.03768       -9.28945       25.87660
C        -21.85903      -10.26620       23.74415
C        -19.38072      -10.75711       22.85479
C        -22.76081      -10.59995       24.93914
C        -19.28609       -9.79648       26.72639
C        -20.86313      -11.30052       23.11580
C        -11.63008       -8.39395       16.89847
C        -17.29059      -10.32045       24.77320
C        -12.92384       -8.43812       16.10237
C        -20.74940      -10.25647       26.87911
C        -13.19691       -9.58240       19.14993
C        -14.42312       -9.61574       18.25145
C        -14.96630      -10.55559       21.31274
C        -16.13604      -10.65954       20.32537
C        -18.18716      -10.91725       25.98165
C        -11.74005       -9.42899       18.24269
C        -18.01336      -11.36041       22.36210
C        -13.45513      -10.52808       20.52026
C        -16.82785      -11.15755       23.40491
C        -15.31526      -11.35045       22.73225
C        -14.13513       -9.35141       16.69771
C        -15.74008      -10.44447       18.79109
C        -22.40748      -12.04019       25.42108
C        -21.09519      -11.87461       26.35997
C        -17.55353      -11.40490       20.83069
C        -21.55048      -12.65445       22.90702
C        -14.69221      -10.39544       15.75639
C        -22.04018      -13.10076       21.51462
C        -16.35944      -11.41905       17.81975
C        -18.28109      -12.31470       19.78389
C        -18.41383      -12.48029       26.09302
C        -22.45093      -13.12634       24.13655
C        -23.66737      -13.34699       21.29466
C        -11.07273      -10.77883       17.97492
C        -13.90015      -10.50374       14.37209
C        -12.84272      -11.92439       20.37539
C        -14.76688      -12.82867       22.68984
C        -15.50275      -11.60415       16.46289
C        -19.93166      -12.99332       26.29889
C        -24.26331      -13.46080       19.89405
C        -17.28960      -12.59118       18.49047
C        -21.08197      -13.36176       20.27128
C        -10.25116      -10.80881       16.37669
C        -19.41676      -13.46512       20.24194
C        -17.26745      -13.60000       26.23590
C        -11.91618      -12.08543       18.86186
C        -25.82202      -13.54781       19.55959
C        -24.53825      -13.94411       22.41420
C        -13.82208      -13.13436       21.23063
C        -23.58309      -14.29096       23.70611
C        -15.71152      -14.00716       23.53477
C        -26.26442      -13.53613       18.08793
C        -12.16123      -12.81127       16.21386
C        -13.29194      -11.70067       14.08042
C        -16.04331      -14.17304       25.22149
C        -10.83295      -11.87084       15.45586
C        -21.84379      -14.25539       19.23130
C        -17.55920      -14.51780       27.51319
C        -13.96852      -13.94773       18.60259
C        -23.31505      -13.97758       18.85500
C        -14.85695      -12.96091       16.28491
C        -12.52898      -13.12047       17.93052
C        -27.74218      -13.46033       17.58513
C        -26.73883      -14.30957       20.50492
C        -20.07938      -14.56768       26.60538
C        -16.67753      -14.00053       18.41841
C        -15.98765      -14.94909       20.89212
C        -14.47920      -14.16250       20.28640
C        -13.42803      -12.80692       15.36116
C        -16.38100      -15.14553       22.60661
C        -25.81075      -14.90580       21.77349
C        -18.99499      -15.00829       27.71232
C        -18.86996      -14.94179       20.21023
C        -15.14682      -13.96499       17.63528
C        -23.02520      -15.77299       23.56119
C        -23.95994      -14.66153       17.67364
C        -17.17741      -14.98856       19.74729
C        -16.46060      -15.31517       28.20056
C        -21.43043      -16.04232       24.17734
C        -25.29314      -14.18576       17.14763
C        -20.80478      -15.85518       25.78314
C        -28.78254      -14.27383       18.33658
C        -15.65226      -15.63680       25.74394
C        -21.36764      -15.70241       19.05673
C        -20.33761      -16.53166       23.08358
C        -28.00882      -15.09406       19.62374
C        -20.97276      -16.71736       21.48149
C        -15.43626      -15.92144       27.27146
C        -17.17075      -16.40410       23.56804
C        -20.18166      -16.09607       20.14832
C        -16.72762      -16.05953       29.52553
C        -25.81240      -14.66271       15.82744
C        -25.35066      -16.34188       21.49554
C        -23.73629      -16.63709       22.18740
C        -19.16330      -16.26283       28.55721
C        -23.52891      -16.07342       17.34184
C        -18.18182      -16.57787       29.71874
C        -16.27272      -16.79650       24.94269
C        -18.80947      -16.93378       23.80153
C        -22.69585      -17.11679       21.15273
C        -22.57545      -16.66963       18.49562
C        -23.38801      -17.37864       19.56936
C        -20.06772      -17.18936       26.27708
C        -15.54836      -16.80496       30.20403
C        -27.61190      -16.51140       19.21062
C        -19.75224      -17.43889       27.81259
C        -26.09944      -17.03070       20.02571
C        -14.91918      -17.28534       27.74508
C        -25.43255      -16.04644       15.35431
C        -19.00115      -17.71887       25.29264
C        -16.47880      -18.10596       25.78047
C        -14.59375      -17.46911       29.26266
C        -24.67461      -16.86240       16.51275
C        -25.08006      -17.62796       19.07303
C        -15.98869      -17.51074       31.37592
C        -25.63435      -17.64818       17.39204
C        -18.42970      -17.84475       30.57851
C        -28.28473      -16.97495       17.60733
C        -17.40004      -18.02292       31.57135
C        -15.50525      -18.48186       26.94866
C        -17.89402      -18.57966       25.96280
C        -19.18462      -18.78205       28.27258
C        -27.27461      -17.63184       16.70462
C        -18.92411      -19.03269       29.81106
C        -14.20257      -18.82259       29.53814
C        -18.17200      -19.39979       27.27038
C        -15.66581      -19.85094       27.66715
C        -14.73005      -19.99955       28.75112
C        -17.06446      -20.31745       27.86649
C        -18.19829      -20.28665       29.96069
C        -17.47050      -20.78055       29.19117
C        -19.94976       -2.60453       24.60757
C        -20.80226       -2.45023       25.85764
C        -23.61901       -3.20503       26.05085
C        -24.56595       -3.79477       25.00984
C        -23.10154       -4.11381       22.73488
C        -21.65169       -3.73185       22.65771
C        -13.56797        5.18308       12.71098
C        -13.60320        6.46329       11.88000
C        -16.33478        6.40354        8.80760
C        -15.25451        7.19331        9.56494
C        -16.26827        4.09354       10.23660
C        -15.51018        3.63763       11.43365
C        -12.77683       -8.13461       14.54564
C        -13.29590       -9.22425       13.62880
C        -10.26726       -8.11784       15.87268
C         -9.56941       -9.41635       15.46809
C        -10.64663      -11.46637       13.72104
C        -12.00021      -11.48135       13.00512
C        -27.98031      -13.28670       16.06947
C        -26.97877      -13.97385       15.18764
C        -29.98379      -14.84080       17.22621
C        -29.63038      -16.22927       16.67770
C        -27.65363      -17.37013       14.98687
C        -26.51330      -16.61470       14.30608
C        -21.47670       -5.65531        0.34470
C        -21.79853       -4.47405        1.26103
C        -20.28087       -8.86466        2.29024
C        -20.57368       -8.27754        0.90082
C        -21.31118       -5.31521        3.90105
C        -20.87198       -6.73914        4.06939
C        -31.33689       -1.05359       12.37800
C        -30.84786       -0.37837       11.13523
C        -32.21935        1.47890        9.56193
C        -33.52063        1.53664       10.35806
C        -34.48131        0.18536       12.77770
C        -33.79688       -0.82529       13.69883
