70
	Energy:    2073.9326920
C         -3.12571        1.63028       -3.03028
C         -1.66407        1.67583       -2.99554
C         -3.06105       -2.84113       -2.90068
C         -1.59877       -2.84108       -2.86289
C         -0.49165        0.82065       -2.81175
C          0.00505       -0.55520       -2.80710
C         -0.45224       -1.94250       -2.72971
C         -4.25966       -2.02314       -3.08477
C         -4.71335       -0.63250       -3.08451
C         -4.29985        0.76831       -3.16486
C         -3.61636        2.93324       -2.37590
C         -1.31876        3.00320       -2.23977
C          0.53746        1.65650       -2.03136
C          1.30996       -0.51087       -1.94266
C          0.59955       -2.70068       -1.90182
C         -1.21592       -4.11108       -2.03064
C         -3.51428       -4.11779       -2.17164
C         -5.40697       -2.82288       -2.38024
C         -6.11985       -0.63489       -2.46137
C         -5.47006        1.57359       -2.50604
C         -4.95258        2.75988       -1.81659
C         -2.52976        3.59482       -1.66176
C         -0.08735        2.84432       -1.45936
C          1.44658        0.79296       -1.28553
C          1.48256       -1.76876       -1.20894
C          0.00851       -3.87009       -1.26043
C         -2.40998       -4.70386       -1.41961
C         -4.85630       -3.95214       -1.62385
C         -6.38794       -1.90402       -1.79373
C         -6.42431        0.66200       -1.86666
C         -5.12914        2.88985       -0.34204
C         -2.64004        3.74965       -0.18311
C         -0.13328        2.98003        0.02458
C          1.44172        0.87120        0.20320
C          1.47705       -1.75805        0.28174
C         -0.03732       -3.91784        0.22885
C         -2.51884       -4.77538        0.06552
C         -5.03273       -4.00355       -0.14437
C         -6.60343       -1.90066       -0.31860
C         -6.63923        0.73632       -0.39337
C         -6.13460        1.97141        0.35527
C         -6.91673       -0.56559        0.36764
C         -6.06699       -3.07742        0.49881
C         -3.90291       -4.60190        0.70243
C         -1.25582       -4.55418        0.90032
C          0.86018       -2.95492        1.01535
C          1.64371       -0.41836        1.00141
C          0.79313        2.09289        0.86508
C         -1.37010        3.61839        0.66001
C         -4.01750        3.56950        0.46634
C         -4.12772        3.61090        1.96672
C         -1.48122        3.66146        2.16039
C          0.68111        2.13620        2.36533
C          1.52864       -0.37519        2.50132
C          0.74492       -2.91080        2.51516
C         -1.36940       -4.51086        2.40040
C         -4.01558       -4.56101        2.20274
C         -6.17832       -3.03615        1.99920
C         -7.02569       -0.52443        1.86806
C         -6.24266        2.01139        1.85574
C         -2.84158        3.67172        2.56049
C         -0.42437        2.93119        2.76074
C          1.08701        0.90146        2.93225
C          1.11738       -1.63432        3.00763
C         -0.33808       -3.71236        2.95689
C         -2.72955       -4.54354        2.79973
C         -5.14680       -3.80296        2.59797
C         -6.65827       -1.77326        2.43006
C         -6.68895        0.76279        2.35835
C         -5.23360        2.84067        2.40779
