40
	Energy:     787.1251141
C         -2.35225        2.92886       -0.12141
C         -1.02862        2.68616       -0.68451
C         -1.78868       -1.46095       -0.20497
C         -0.58599       -0.85007       -0.75216
C          0.31904        2.44566       -0.17134
C          1.02869        1.16440       -0.09604
C          0.55742       -0.20141       -0.20338
C         -3.11662       -0.85202       -0.15807
C         -3.50138        0.54035       -0.25604
C         -2.90178        1.73968       -0.76654
C         -2.45760        3.98625       -1.13406
C         -1.01145        4.05281       -1.19005
C          1.81383        1.52065       -1.24045
C          1.19339        2.80977       -1.27544
C          0.27003       -1.96740       -1.12474
C          1.40001       -1.01993       -1.06719
C         -3.49443       -1.57548       -1.33651
C         -2.26138       -2.30735       -1.29046
C         -4.25661        2.16131       -1.14128
C         -4.61729        0.73587       -1.16724
C         -4.91882        0.02006       -2.44634
C         -4.24838       -1.24275       -2.54591
C         -3.38510        4.12196       -2.29469
C         -4.44427        3.12865       -2.27656
C          0.99150        3.64796       -2.48083
C         -0.23439        4.40962       -2.42001
C          2.15850       -0.62222       -2.29407
C          2.33461        0.79639       -2.40132
C         -1.55096       -2.89606       -2.45425
C         -0.10663       -2.80427       -2.32142
C         -3.61160       -1.81075       -3.69353
C         -2.30407       -2.62419       -3.64483
C          0.78241       -2.54935       -3.40753
C          1.87314       -1.48698       -3.39153
C          2.18935        1.59137       -3.58281
C          1.53302        2.98179       -3.62523
C         -1.12047        4.65498       -3.51483
C         -2.64590        4.51813       -3.45432
C         -4.92598        2.44221       -3.43302
C         -5.13796        0.93341       -3.51873
