312
	Energy:    4490.9635058
C          2.94775       -2.28304        2.44947
C          3.00926       -3.62485        3.20665
C          2.32681       -0.45730        9.02497
C          2.26942        0.89680        8.27762
C          1.59121       -0.16646        3.31724
C          1.70618       -1.48803        2.64459
C          0.45568       -2.32157        2.61092
C          0.51013       -3.62605        3.34359
C          1.81077       -3.95907        4.02312
C          1.75763       -4.12112        5.50156
C          0.39811       -4.12055        6.13666
C          0.24272       -3.42435        7.43580
C          1.45694       -2.76794        8.02485
C          1.26218       -1.43748        8.66596
C         -0.10167       -0.81742        8.50214
C         -0.15599        0.49296        7.77873
C          1.15905        1.04410        7.29388
C          1.29119        1.21278        5.82086
C          0.05946        0.99136        4.99494
C          0.21459        0.28266        3.70419
C         -0.98620       -0.30003        3.06054
C         -0.86411       -1.66373        2.47881
C         -2.10007       -2.50134        2.42850
C         -2.04588       -3.84506        3.17926
C         -0.76124       -4.16800        3.87367
C         -0.81648       -4.41901        5.33876
C         -2.15367       -4.48397        5.99687
C         -2.31554       -3.75828        7.33665
C         -1.12068       -3.04458        7.87884
C         -1.30623       -1.68086        8.44482
C         -2.65735       -1.05552        8.29933
C         -2.71336        0.29120        7.55535
C         -1.40941        0.82839        7.05869
C         -1.28988        1.08288        5.59779
C         -2.50639        0.93654        4.74492
C         -2.34593        0.20754        3.40490
C         -3.53025       -0.39795        2.67337
C         -3.41428       -1.78568        2.18832
C         -4.50630       -2.69070        2.31228
C         -4.46471       -4.01378        3.03826
C         -3.30436       -4.50990        3.70109
C         -3.34767       -4.84748        5.13543
C         -4.55595       -4.76209        5.88041
C         -4.72720       -4.05155        7.20026
C         -3.67865       -3.35900        7.87021
C         -3.86025       -1.97659        8.34876
C         -5.05421       -1.25942        8.05334
C         -5.12284        0.06281        7.32908
C         -3.97278        0.74973        6.84252
C         -3.85842        1.09379        5.41334
C         -4.91543        0.82581        4.49914
C         -4.75853        0.10878        3.18171
C          8.22801        1.36067        8.53422
C          8.29113        0.00195        9.28524
C         10.72969        1.35824        8.37907
C          9.42644        1.70468        7.72140
C         10.79200        0.06001        9.10592
C          9.54584       -0.77496        9.10119
C         13.27968        1.62040        8.58903
C         11.99561        1.95441        7.90071
C         13.34574        0.27081        9.32276
C         12.11626       -0.57576        9.28503
C         15.68415        1.80195        8.76719
C         14.53299        2.32567        8.11404
C         15.76203        0.47639        9.48513
C          9.47383        2.08610        6.28632
C         14.66541       -0.42656        9.59206
C         12.05109        2.36543        6.47156
C          9.67835       -2.17113        8.62008
C         14.58866        2.75215        6.70426
C         10.83561        2.12865        5.64831
C         12.25249       -1.98441        8.82665
C          8.58512       -3.12232        8.26928
C         13.39557        2.43755        5.82104
C         14.79691       -1.83276        9.16950
C         11.05451       -2.62134        8.22924
C         15.80112        2.66593        5.96426
C         13.61499       -2.47959        8.47486
C         16.02325       -2.33610        8.65363
C         10.99878        1.41628        4.35320
C          8.74532       -3.84870        6.89037
C         13.56316        1.69883        4.48641
C          9.79158        0.72289        3.79258
C         11.19940       -3.29614        6.91349
C         15.97801        1.94795        4.64932
C         12.36514        0.98475        3.95477
C         13.76958       -3.20467        7.13110
C          9.95383       -3.47985        6.09094
C         14.92627        1.25610        3.98363
C         16.18870       -3.06469        7.34268
C         12.54299       -3.34259        6.28800
C          9.98354       -0.66393        3.32240
C         15.11653       -3.32424        6.44120
C          8.93859       -1.62304        2.91588
C         10.05457       -3.17227        4.63410
C          8.93493       -2.98556        3.64246
C         12.53555       -0.42757        3.51938
C         11.32932       -1.27630        3.50479
C         12.63788       -2.98638        4.84766
C         11.37570       -2.60660        4.17194
C         15.08801       -0.14951        3.56971
C         13.87898       -1.05727        3.65734
C         15.20532       -2.91894        5.02580
C         13.93640       -2.42774        4.35580
C         16.28461       -0.86843        3.84717
C         16.34008       -2.20534        4.54426
C          2.11406        8.04742        1.28078
C          2.28518        7.31071       -0.02630
C          2.36525        5.96578        2.50498
C          2.34553        7.48045        2.56635
C          2.54315        5.21861        1.17925
C          2.69395        5.95210       -0.13874
C          2.68539        3.74112        3.77392
C          2.69848        5.22415        3.75860
C          2.85850        3.02048        2.49128
C          3.02778        3.80970        1.24781
C          2.51412        1.55579        5.03341
C          2.96588        2.98058        5.03614
C          2.68319        0.79245        3.66574
C          3.22508        8.14556        3.54577
C          3.28702        1.58622        2.55423
C          3.52423        5.91305        4.78831
C          3.93622        9.32773        3.19391
C          3.79123        5.55242       -1.03790
C          3.71715        3.69330        6.10036
C          4.07088        7.26042        4.44091
C          4.08746        3.37896        0.29780
C          4.53750        6.52577       -1.75954
C          4.26671        5.04400        5.73317
C          4.28424        1.13870        1.55388
C          4.68627        4.41418       -0.59296
C          4.38055        3.07301        7.27828
C          4.88595        2.19531        0.68141
C          5.43462        9.49726        3.25802
C          5.04499       -0.13178        1.55278
C          5.60114        7.41483        4.50048
C          6.03803        6.68415       -1.71237
C          5.75439        5.18853        5.78429
C          6.32421        8.46872        3.68409
C          6.21785        4.56252       -0.54272
C          5.91772        3.21885        7.33435
C          6.38048        6.20494        4.90685
C          6.37475        2.32597        0.72414
C          6.89092        5.87180       -0.90854
C          6.53697        3.97797        6.21484
C          6.57203       -0.01603        1.64049
C          6.94392        3.65818        0.40614
C          7.42579        8.01968        2.81449
C          7.09879        1.39310        1.66884
C          7.67296        8.63097        1.55451
C          7.76672        6.48846        0.10576
C          7.84634        7.90380        0.24405
C          7.44551        5.72737        3.98459
C          7.74777        6.53931        2.77036
C          7.75419        4.30304        1.47450
C          7.91432        5.78833        1.44458
C          7.56563        3.47723        5.26666
C          7.79495        4.28684        4.02541
C          7.84561        2.05568        2.78059
C          7.93849        3.55545        2.74250
C          8.32357        2.19202        5.33450
C          8.49000        1.42840        3.97551
C          6.98895      -11.62364        8.46927
C          5.48659      -11.72701        8.34289
C          6.95156       -9.49643        7.30909
C          7.74122      -10.44891        8.18046
C          5.42217       -9.59973        7.18281
C          4.63814      -10.66185        7.92379
C          6.87229       -7.23247        6.10723
C          7.55922       -8.16288        7.02511
C          5.38877       -7.32443        5.99269
C          4.69496       -8.35253        6.79609
C          6.90184       -5.22720        4.61716
C          7.48273       -5.90393        5.79619
C          5.35966       -5.32274        4.49059
C          8.64977       -9.86294        9.18318
C          4.67082       -6.07238        5.57834
C          8.42920       -7.55302        8.06797
C          8.83368      -10.47310       10.45453
C          3.51237      -10.21635        8.76516
C          8.28651       -5.26647        6.85707
C          8.70924       -8.35020        9.29684
C          3.60289       -7.87906        7.68747
C          3.21180      -10.86512        9.99468
C          8.52661       -6.06958        8.09923
C          3.62145       -5.57001        6.50131
C          3.23488       -8.72728        8.85852
C          3.30446       -6.42477        7.69359
C          8.68506       -9.78039       11.78641
C          2.90157       -4.26029        6.45585
C          8.54314       -7.63670       10.64405
C          3.05009      -10.18119       11.32966
C          8.35481       -5.37777        9.40119
C          8.32437       -8.40989       11.93136
C          3.07382       -8.02136       10.21029
C          8.11137       -6.20495       10.61061
C          3.13947       -5.74057        8.99995
C          3.18878       -8.77653       11.52140
C          7.96525       -3.92659        9.36783
C          2.73191       -3.52860        7.84155
C          3.29187       -6.54303       10.23931
C          7.19817       -8.01070       12.79399
C          3.30002       -4.24709        9.02434
C          6.39809       -8.98948       13.44818
C          4.09278       -8.23609       12.55345
C          4.89721       -9.10776       13.34337
C          7.01237       -5.78214       11.52049
C          6.35170       -6.83480       12.35097
C          4.14742       -5.97892       11.31870
C          4.82103       -6.94216       12.24244
C          6.91681       -3.48820       10.32532
C          6.25824       -4.56397       11.14270
C          4.08812       -3.67273       10.14706
C          4.76975       -4.65980       11.05432
C          6.18396       -2.19232       10.31404
C          4.64237       -2.29335       10.23275
C          5.61642        1.62659       16.78216
C          4.11184        1.51476       16.71869
C          5.80135        0.46604       14.65583
C          6.48881        1.33280       15.69503
C          4.27092        0.35618       14.58947
C          3.38264        1.10234       15.56619
C          5.96180       -0.74401       12.38077
C          6.55145        0.16799       13.39699
C          4.47568       -0.84483       12.31130
C          3.67710       -0.04096       13.27338
C          6.71736       -1.06119       11.12182
C          7.46357        2.33127       15.21967
C          3.88370       -1.26231       10.99415
C          7.51569        1.19365       12.90874
C          7.57072        3.60964       15.83610
C          2.30931        1.94528       15.01018
C          7.64921       -0.02642       10.62743
C          7.70886        2.42977       13.72704
C          2.59882        0.81943       12.70840
C          1.97076        3.19182       15.60771
C          7.81076        1.21243       11.45550
C          2.81643       -0.40593       10.43162
C          2.16791        2.01268       13.50116
C          2.41109        0.79794       11.23332
C          7.51246        4.93788       15.12137
C          7.64785        3.77508       12.98830
C          1.89725        4.51721       14.89054
C          7.75813        2.51367       10.74040
C          7.33062        5.07003       13.71428
C          2.10455        3.35629       12.76064
C          7.40077        3.72839       11.51438
C          2.35361        2.10063       10.51497
C          2.17423        4.67979       13.50232
C          7.54087        2.46403        9.25836
C          2.47990        3.34991       11.31269
C          6.26206        5.92425       13.16334
C          2.70499        2.09097        9.05532
C          5.35716        6.60785       14.02365
C          3.15183        5.68136       13.03882
C          3.85259        6.50202       13.97011
C          6.33572        4.60612       10.95177
C          5.55442        5.44814       11.90820
C          3.46219        4.36703       10.84201
C          4.02372        5.31957       11.85101
C          6.50473        3.35089        8.69380
C          5.72011        4.18159        9.66727
C          3.67637        3.10337        8.58896
C          4.23664        4.04452        9.61631
C          4.10287       -5.91469       -4.05438
C          4.15182       -7.23043       -3.31493
C          3.81140       -4.72933       -1.95472
C          4.15066       -4.63592       -3.42886
C          3.86071       -6.06730       -1.20231
C          4.25627       -7.35533       -1.89986
C          3.52534       -3.50177        0.29537
C          3.92264       -3.48197       -1.13522
C          3.57661       -4.79732        1.02628
C          4.02730       -6.00259        0.28260
C          3.61033       -2.25606        1.11783
C          5.13650       -3.62189       -3.84418
C          3.73516       -4.72449        2.51656
C          4.90193       -2.43610       -1.56750
C          6.09280       -3.90860       -4.85912
C          5.32152       -8.17145       -1.28969
C          4.56430       -1.22193        0.68254
C          5.74694       -2.74996       -2.76154
C          5.11365       -6.81796        0.89702
C          6.28573       -8.83908       -2.09730
C          5.42496       -1.51205       -0.51345
C          4.84290       -5.49487        3.10870
C          5.95263       -7.66602       -0.00764
C          5.66597       -6.34943        2.19570
C          7.58952       -3.78624       -4.71243
C          7.26467       -2.68650       -2.56202
C          7.78418       -8.70688       -1.96792
C          6.90129       -1.52828       -0.27246
C          8.23403       -3.36606       -3.51403
C          7.47691       -7.53784        0.13921
C          7.76135       -2.30762       -1.20325
C          7.14650       -6.27178        2.34732
C          8.41784       -7.87453       -1.00000
C          7.37106       -1.06271        0.92644
C          7.96468       -6.57101        1.16290
C          9.35966       -4.12713       -2.94135
C          7.68228       -5.29244        3.34870
C          9.74961       -5.37487       -3.50716
C          9.38928       -6.84393       -1.40926
C          9.77155       -6.69386       -2.77350
C          8.97858       -2.97886       -0.67770
C          9.46050       -4.17509       -1.42866
C          8.84643       -5.47112        0.71639
C          9.37576       -5.51018       -0.68174
C          8.60534       -1.68157        1.47289
C          9.12743       -2.92152        0.79710
C          8.51587       -4.17601        2.83432
C          8.90741       -4.21658        1.52223
