384
	Energy:    6191.9981108
C         17.32062        4.31819       19.13152
C         18.31199        5.72247       19.06348
C         17.93219        6.78931       20.11029
C         17.48553        8.26129       19.89920
C         17.35531        9.05454       18.58748
C         15.77295        9.70945       18.34946
C         14.68786        9.42231       19.54273
C         13.08377        9.00040       19.56321
C         11.98527        8.65761       18.38715
C         10.97938        7.30455       18.66974
C         11.31579        6.55871       19.99866
C         11.81016        5.09054       20.19775
C         12.00615        3.97911       19.14636
C         13.58485        3.28386       19.17572
C         14.60440        3.87857       20.29425
C         16.18360        4.31931       20.27219
C         16.67660        5.02096       21.57693
C         17.59832        6.21779       21.49096
C         17.66469        7.11472       22.70716
C         17.22542        8.52928       22.50851
C         16.78309        8.90238       21.10951
C         15.36731        9.42156       20.95639
C         14.58170        9.65657       22.23653
C         13.14419        9.27144       22.26347
C         12.53904        8.66383       21.00399
C         11.60933        7.48008       21.20231
C         11.51790        6.92177       22.61749
C         11.97409        5.51027       22.80523
C         12.46309        4.79681       21.56603
C         13.87033        4.24191       21.61760
C         14.61071        4.34699       22.94021
C         16.04222        4.74562       22.91852
C         16.64895        5.30433       24.19150
C         17.50141        6.53272       24.08277
C         17.58390        7.42530       25.30000
C         17.13706        8.88546       25.09899
C         16.67332        9.25402       23.70541
C         15.29521        9.82751       23.56897
C         14.53284       10.10993       24.84327
C         13.05880        9.69784       24.87689
C         12.50061        9.05253       23.62691
C         11.64632        7.83367       23.80935
C         11.53226        7.27556       25.21602
C         11.98262        5.81665       25.40890
C         12.48475        5.11324       24.17063
C         13.85749        4.51720       24.23901
C         14.58359        4.56814       25.56607
C         16.05810        4.98762       25.54095
C         16.76126        5.51673       26.79480
C         17.53192        6.77358       26.67741
C         17.48689        7.74929       27.71340
C         17.06095        9.19054       27.52854
C         16.64453        9.72381       26.27365
C         15.31539       10.35612       26.13499
C         14.45737       10.50326       27.25653
C         13.00136       10.09406       27.30366
C         12.32189        9.49801       26.20581
C         11.54869        8.25110       26.38593
C         11.56171        7.56960       27.63617
C         11.98579        6.13164       27.84204
C         12.43580        5.30067       26.77576
C         13.76092        4.65050       26.84923
C         14.58407        4.78948       28.00130
C         16.03663        5.21002       27.97853
C         11.01140        1.94383       17.59637
C         10.74155        3.36632       18.31795
C          9.14442        4.01052       18.21711
C          8.67243        5.57218       17.99128
C          9.62929        6.94633       17.79614
C          9.22534        7.94713       16.56693
C          8.10148        7.53297       15.77932
C          8.09756        7.41175       14.18554
C          9.47321        7.52338       13.31125
C          9.96292        6.15449       12.61947
C          8.93826        4.79297       12.76359
C          9.37194        3.22656       13.01853
C         10.94780        2.62389       13.20658
C         11.15346        1.49489       14.31227
C          9.80679        1.14271       15.21092
C          9.73721        1.37912       16.76479
C          8.22258        1.60317       17.34839
C          7.90579        2.93809       18.01803
C          6.35092        3.32243       18.14098
C          5.95677        4.74556       17.88967
C          7.11292        5.75128       17.54828
C          6.83622        6.74392       16.44619
C          5.41505        6.58819       15.71127
C          5.45757        6.39700       14.21951
C          6.90652        6.40906       13.60253
C          7.33200        5.07318       12.97320
C          6.19855        3.93938       12.85751
C          6.59046        2.51193       13.10411
C          8.10765        2.22636       13.44880
C          8.35091        1.15268       14.50782
C          7.04322        0.60827       15.25297
C          6.97471        0.85715       16.73822
C          5.53845        0.96743       17.36158
C          5.20821        2.26072       18.05346
C          3.70140        2.62008       18.20837
C          3.30037        4.07063       17.92854
C          4.44489        5.03034       17.53956
C          4.16147        6.00069       16.42716
C          2.78746        5.84362       15.70302
C          2.85368        5.59703       14.18607
C          4.28315        5.55614       13.59678
C          4.67080        4.26353       12.93070
C          3.56124        3.18174       12.77033
C          3.95736        1.72897       13.04258
C          5.42954        1.48686       13.43717
C          5.67264        0.48828       14.53552
C          4.40905       -0.06863       15.25935
C          4.33552        0.19495       16.77443
C          2.95839        0.24845       17.49624
C          2.63677        1.49748       18.20863
C          1.29597        2.00285       18.25113
C          0.88334        3.42693       17.97616
C          1.82033        4.45467       17.62851
C          1.55357        5.36623       16.50198
C          0.40557        5.15539       15.66482
C          0.45630        4.89978       14.17840
C          1.70130        4.83837       13.46512
C          2.07183        3.59903       12.75960
C          1.17944        2.47830       12.70752
C          1.55064        1.04201       12.97647
C          2.87934        0.63787       13.33064
C          3.10821       -0.28789       14.45472
C          2.00839       -0.69668       15.28431
C          1.93022       -0.43817       16.76837
C         28.57220        9.33670       18.09287
C         28.18687       10.77809       17.87855
C         26.85942       11.22470       17.57202
C         26.62335       12.19790       16.49281
C         27.71440       12.60567       15.65348
C         27.77021       12.39402       14.16080
C         26.70813       11.74488       13.44397
C         26.98673       10.50615       12.69696
C         28.31744        9.98538       12.59151
C         28.71637        8.54656       12.80380
C         27.77922        7.51884       13.15145
C         28.07499        6.55738       14.23047
C         29.24860        6.72779       15.03929
C         29.22293        6.94824       16.53339
C         27.99642        7.01369       17.28121
C         27.65022        8.24279       18.01720
C         26.15895        8.68835       18.05195
C         25.77035       10.15010       17.83674
C         24.28476       10.43831       17.47514
C         24.03567       11.48888       16.42771
C         25.30079       12.03907       15.70522
C         25.34399       11.81349       14.18401
C         24.11648       11.07341       13.59565
C         24.41236        9.76985       12.90564
C         25.90693        9.39683       12.70431
C         26.29563        7.93359       12.92659
C         25.15681        6.97346       13.33193
C         25.48024        5.93755       14.37447
C         26.86320        6.06476       15.05606
C         26.82373        6.29225       16.57898
C         25.40320        6.35434       17.20548
C         25.03202        7.64107       17.89112
C         23.49348        7.99809       17.99547
C         23.10777        9.43299       17.78458
C         21.56788        9.76501       17.46018
C         21.32513       10.89309       16.45378
C         22.64343       11.42789       15.71898
C         22.68784       11.21205       14.22631
C         21.41917       10.48652       13.61320
C         21.71250        9.12175       12.98913
C         23.25410        8.71800       12.84467
C         23.63764        7.28490       13.06541
C         22.48994        6.26610       13.43234
C         22.85849        5.16479       14.42557
C         24.26258        5.32773       15.11950
C         24.22013        5.54616       16.61136
C         22.77047        5.56741       17.25660
C         22.35095        6.89826       17.88368
C         20.72405        7.19309       18.09720
C         20.28231        8.78222       17.86541
C         18.68493        9.43749       17.70067
C         18.47837       10.63020       16.62206
C         19.84480       10.96642       15.74426
C         19.90067       10.74905       14.18707
C         18.61208       10.16916       13.36092
C         18.87749        8.72771       12.70680
C         20.46229        8.06708       12.82483
C         20.89745        6.49254       13.07478
C         19.87887        5.15804       13.27554
C         20.32165        4.03578       14.30829
C         21.64392        4.39530       15.15450
C         21.59297        4.60945       16.70395
C         20.20516        4.45959       17.54659
C         19.70120        5.82540       18.23170
C         15.73635        1.31111        3.90745
C         17.17250        1.77485        3.93905
C         17.76702        2.43857        5.05130
C         18.52613        3.69012        4.87486
C         18.58382        4.34022        3.60555
C         18.16672        5.76741        3.33826
C         17.64531        6.63129        4.34994
C         16.31585        7.24845        4.19316
C         15.55502        7.05901        3.00338
C         14.12036        6.60038        2.94798
C         13.34645        6.29443        4.10648
C         12.60267        5.02863        4.20519
C         12.73501        4.02664        3.19762
C         13.15027        2.59583        3.43437
C         13.47730        2.08945        4.72892
C         14.79862        1.48238        4.97071
C         15.48763        1.79115        6.29207
C         16.94330        2.26236        6.32855
C         17.39367        2.96907        7.57329
C         18.25205        4.18554        7.40521
C         18.46068        4.70364        6.00510
C         18.02843        6.15938        5.74622
C         17.44664        6.89752        6.92624
C         16.06151        7.44686        6.77866
C         15.41527        7.34066        5.42288
C         13.96072        6.87112        5.38115
C         13.29792        6.57024        6.70222
C         12.45644        5.33561        6.78534
C         12.46265        4.40963        5.58663
C         12.88417        2.95271        5.84406
C         13.24399        2.62067        7.26914
C         14.62584        2.08881        7.50197
C         15.24268        2.33733        8.85227
C         16.65743        2.78550        8.88351
C         17.15027        3.45619       10.12857
C         18.09807        4.61517        9.95486
C         18.30291        5.13133        8.55983
C         17.88334        6.54246        8.31299
C         17.31471        7.27952        9.49518
C         15.89568        7.77694        9.37577
C         15.22979        7.62106        8.03046
C         13.81583        7.17129        7.99375
C         13.11227        6.91640        9.30818
C         12.18273        5.72371        9.36288
C         12.19385        4.79307        8.15877
C         12.59319        3.37411        8.40717
C         12.94462        3.04408        9.83226
C         14.36992        2.59539       10.06799
C         14.96400        2.70267       11.48602
C         16.52170        3.17496       11.51595
C         17.54944        3.50491       12.68414
C         18.55962        4.84493       12.44128
C         18.30713        5.55281       11.12565
C         17.87861        6.99994       10.87971
C         17.63637        8.09999       11.89487
C         16.06018        8.75752       11.80493
C         15.09653        8.13166       10.65955
C         13.53180        7.64896       10.62526
C         12.34895        7.65688       11.71899
C         11.35221        6.26108       11.76635
C         11.75893        5.18608       10.73335
C         12.16511        3.71881       10.98453
C         12.27285        3.00577       12.32686
C         13.84825        2.43636       12.62592
C         12.68425        0.83975       14.49528
C         10.23658        9.30005       16.30845
C         14.05948        1.36283       13.70193
C         11.62953        9.65534       17.21916
C         13.94943       -1.42581       14.94387
C         10.07790       11.93441       15.74436
C         15.25738       -1.02562       14.25969
C         11.37181       12.32849       16.46578
C         12.98247       -0.30785       15.44866
C          9.89499       10.44490       15.30115
C         15.50592        0.50262       13.89881
C         12.40157       11.16649       16.96045
C         14.78123       -3.92625       15.14885
C          9.43354       14.49561       15.33927
C         16.01264       -3.59787       14.35417
C         10.62179       14.91967       16.14913
C         13.99710       -2.74456       15.70121
C          9.43358       13.04770       14.87996
C         16.34524       -2.11621       14.13053
C         11.69847       13.84920       16.50208
C         15.48759       -6.45305       15.25330
C          8.66253       16.99547       15.04686
C         16.61969       -6.16699       14.35349
C          9.73628       17.39817       15.94051
C         14.80765       -5.24177       15.90722
C          8.76560       15.57510       14.47874
C         17.04707       -4.70327       14.16754
C         10.89000       16.42380       16.25026
C         12.90597       -0.14038       16.97784
C          9.97177       10.24213       13.77967
C         17.14552        0.95559       13.90198
C         14.04974       11.65933       16.98630
C         15.55609       -7.56354       16.15211
C          8.13398       17.91209       14.06410
C         17.72053       -7.06863       14.23259
C         10.18746       18.79821       16.00022
C         13.93146       -2.60327       17.19947
C          9.50986       12.83116       13.39056
C         17.78470       -1.72240       14.14608
C         13.12829       14.28496       16.53137
C         12.54683        1.22404       17.66703
C         10.39738        8.90136       13.16468
C         17.93322        2.43864       13.72207
C         15.53342       10.80852       17.24449
C         14.74941       -5.10367       17.44214
C          8.84162       15.34984       12.95616
C         18.51996       -4.30110       14.20027
C         12.34245       16.86947       16.28355
C         13.82448       -1.14549       17.73438
C         10.22366       11.54014       12.96195
C         18.15154       -0.23275       14.27510
C         14.26331       13.20309       16.51438
C         15.49909       -7.43700       17.65601
C          8.19819       17.70239       12.57774
C         19.17884       -6.68616       14.26526
C         11.60184       19.23934       16.03745
C         14.66967       -3.66654       17.97945
C          9.57953       14.08083       12.52798
C         18.83097       -2.82569       14.39870
C         13.42072       15.77666       16.20496
C         15.37341       -6.17732       18.32983
C          8.82218       16.54248       11.98911
C         19.63464       -5.34158       14.42574
C         12.74840       18.33065       16.00402
C         13.86424        1.92423       18.42633
C         11.88468        8.97096       12.42784
C         19.37144        2.68229       14.50195
C         16.91666       11.32535       16.41800
C         15.08575       -0.59764       18.40964
C         11.59216       11.72946       12.30456
C         19.47190        0.08848       14.97531
C         15.57382       13.60384       15.82214
C         15.84099       -3.18005       18.78148
C         10.85847       14.27589       11.76631
C         20.03706       -2.48173       15.22424
C         14.66108       16.09509       15.42358
C         15.31992        1.01938       18.50561
C         12.64625       10.49737       12.29572
C         19.71378        1.54137       15.46734
C         16.58752       12.46679       15.39477
C         16.43267       -5.72089       19.24342
C         10.00446       16.69921       11.13869
C         20.72536       -5.00963       15.36028
C         13.88973       18.60072       15.13843
C         16.16167       -1.65538       18.78189
C         11.94784       13.17483       11.86918
C         20.09041       -1.06675       15.76525
C         15.48852       14.89487       14.96609
C         16.84910       -4.23427       19.21982
C         11.16219       15.68810       11.27160
C         20.66885       -3.62343       16.00816
C         14.61405       17.37021       14.57262
C         16.97169        1.47571       18.50758
C         14.28318       10.99140       12.33158
C         19.64971        1.71498       16.99500
C         16.66257       12.24810       13.86246
C         17.76674        2.99883       18.40537
C         15.75378       10.12736       12.48581
C         19.25851        3.06320       17.65549
C         17.05929       10.87345       13.23797
C         17.50848       -6.58203       19.60898
C         10.47594       18.00523       10.74495
C         21.21512       -5.99649       16.27327
C         13.82423       19.66224       14.16303
C         17.60056       -1.25464       18.79974
C         13.37620       13.61184       11.89969
C         20.02952       -0.91462       17.26282
C         15.56275       14.67752       13.47613
C         17.99266        0.20867       18.42711
C         14.47598       12.60144       12.35654
C         19.36227        0.38690       17.76468
C         15.71342       13.20147       13.03677
C         18.31575       -3.82484       19.25145
C         12.61691       16.13854       11.30514
C         20.61171       -3.47557       17.54225
C         14.68821       17.14653       13.05081
C         18.65395       -2.39595       18.82659
C         13.65464       15.13514       11.82062
C         19.92614       -2.20456       18.05344
C         14.80513       15.68335       12.61258
C         18.95940       -6.18655       19.65187
C         11.90064       18.45710       10.77064
C         21.17140       -5.86097       17.77691
C         13.89949       19.45781       12.67729
C         19.43683       -4.88355       19.31132
C         13.00095       17.62833       11.20239
C         20.60860       -4.71802       18.43487
C         14.04609       18.15203       12.08329
