780
	Energy:    6740.3204867
C        -10.97103        6.70616       -0.45026
C         -9.89111        6.10039       -1.37973
C        -10.41781        5.35850       -2.66340
C         -9.32952        4.44699       -3.19241
C         -8.16304        4.57721       -2.77279
C         -7.46787        3.26142       -2.37152
C         -8.26339        2.01885       -2.83729
C         -7.75263        0.64967       -2.48436
C         -7.02339        0.73518       -1.12646
C         -7.03777       -0.71624       -0.56161
C         -8.48281       -1.10595       -0.43210
C         -8.91305       -1.86898        0.80920
C         -8.34926       -1.11393        1.99282
C         -8.87760        0.40938        2.06398
C        -10.40906        0.48120        1.86019
C        -10.85381        1.91966        1.42273
C        -10.17228        3.16599        2.13426
C        -10.95772        4.59914        1.83254
C        -11.73588        4.41192        0.52906
C        -12.15747        5.70932       -0.22356
C        -12.75305        5.30324       -1.58203
C        -11.68530        4.52533       -2.37891
C        -12.21662        3.90701       -3.67808
C        -11.19040        2.86021       -4.08997
C         -9.75425        3.40971       -4.25637
C         -8.80087        2.16313       -4.25480
C         -9.45137        0.82923       -4.79519
C         -9.46836       -0.48349       -3.96126
C         -9.02267       -0.22490       -2.53730
C         -9.00711       -1.52464       -1.75262
C        -10.47243       -1.90780       -1.64024
C        -10.83805       -2.73664       -0.38143
C        -10.39814       -1.95582        0.87489
C        -10.96984       -0.52958        0.82621
C        -12.48079       -0.58256        0.87320
C        -12.97359        0.80653        0.47878
C        -12.39709        2.00541        1.31321
C        -12.88658        3.38302        0.73311
C        -13.67418        3.15421       -0.56695
C        -14.01141        4.43489       -1.35845
C        -14.58941        4.01954       -2.72087
C        -13.53806        3.15971       -3.44107
C        -14.03112        2.48966       -4.71785
C        -13.03164        1.40223       -5.08394
C        -11.65384        2.02454       -5.32305
C        -10.58980        1.00374       -5.78933
C        -11.08577       -0.33243       -6.39773
C        -11.26781       -1.50619       -5.40508
C        -10.86319       -1.17069       -3.96898
C        -10.98956       -2.38827       -2.99481
C        -12.46414       -2.81495       -2.86681
C        -12.76386       -3.65795       -1.60818
C        -12.34401       -2.92846       -0.31796
C        -13.04467       -1.55664       -0.18831
C        -14.52954       -1.68655        0.06174
C        -15.17680       -0.35166       -0.27654
C        -14.50762        0.89629        0.37044
C        -14.90285        2.21987       -0.35911
C        -15.59343        1.95055       -1.70938
C        -15.88127        3.23236       -2.48007
C        -10.87436        4.16998        5.36615
C        -10.23961        2.89154        4.79220
C        -10.80463        1.59369        5.42030
C        -10.26643        0.25078        4.94063
C         -8.74143        0.39422        4.70845
C         -8.09065       -1.03183        4.95047
C         -8.52344       -1.47343        6.32377
C         -7.49630       -2.16646        7.20883
C         -6.25415       -1.30562        7.17240
C         -6.53170        0.20597        7.65875
C         -7.23024        0.14647        9.03552
C         -7.86110        1.52909        9.30925
C         -6.94016        2.80145        9.29064
C         -7.74485        4.19556        9.47703
C         -9.01464        4.10061        9.97374
C         -9.94882        5.32778       10.02840
C         -9.76179        6.31086        8.81841
C        -10.25299        5.70236        7.49852
C        -11.61099        4.93721        7.52116
C        -11.66365        4.00045        6.34061
C        -12.75386        2.93732        6.33000
C        -12.33404        1.62938        5.55511
C        -12.82653        0.35110        6.31007
C        -12.20385       -1.00423        6.01356
C        -10.70921       -0.74833        6.04763
C         -9.90061       -2.01033        6.27446
C        -10.32864       -2.47376        7.66195
C         -9.25247       -3.21095        8.49883
C         -7.99625       -2.32393        8.59558
C         -8.35673       -0.92901        9.11720
C         -8.93120       -1.03340       10.51143
C         -9.59193        0.30899       10.77674
C         -8.65780        1.53301       10.59948
C         -9.53368        2.77024       10.52103
C        -10.90827        2.66688       11.16432
C        -11.67862        3.98472       11.31260
C        -11.43836        4.89646       10.09395
C        -11.81841        4.13230        8.80988
C        -13.24376        3.56452        8.82545
C        -13.26078        2.50873        7.73349
C        -14.52696        1.58655        7.67321
C        -14.31633        0.40499        6.66423
C        -14.94810       -0.93742        7.15435
C        -14.10945       -2.21705        6.99557
C        -12.64364       -1.89105        7.19794
C        -11.72842       -3.07487        7.59979
C        -12.15595       -3.55850        8.99949
C        -11.05127       -4.29676        9.78093
C         -9.77639       -3.44472        9.90803
C        -10.06171       -2.08547       10.58629
C        -10.48231       -2.21666       12.03507
C        -11.13618       -0.90345       12.44970
C        -10.27620        0.35609       12.15816
C        -11.05388        1.69820       12.36457
C        -12.55415        1.46807       12.63472
C        -13.36634        2.76584       12.67420
C        -13.16486        3.60954       11.40358
C        -13.52433        2.81318       10.13537
C        -14.90649        2.18820       10.11611
C        -14.86535        1.06969        9.08671
C         -7.04960       -3.07160        3.97695
C         -6.80883       -2.99742        2.48416
C         -6.14189       -4.21587        1.79766
C         -6.35001       -4.08750        0.30144
C         -5.73764       -2.76309       -0.16881
C         -4.24375       -2.80043       -0.46094
C         -3.50833       -4.07272       -0.02230
C         -2.08817       -4.05176       -0.58603
C         -1.31098       -2.75654       -0.16038
C         -0.52948       -2.90919        1.15873
C         -0.96829       -4.11087        2.02158
C         -0.20576       -4.13735        3.30134
C         -0.84640       -2.91019        3.95629
C         -1.17675       -3.06531        5.40334
C         -2.14767       -4.24235        5.46936
C         -2.87285       -4.33750        6.79087
C         -3.75049       -3.05371        6.93234
C         -5.04358       -3.13565        6.09442
C         -5.18494       -4.30243        5.07506
C         -6.62988       -4.39573        4.65926
C         -6.86523       -5.65974        3.78577
C         -6.79776       -5.54045        2.25473
C         -6.18133       -6.77459        1.54160
C         -6.37518       -6.63980        0.02907
C         -5.77482       -5.30916       -0.47354
C         -4.22739       -5.32013       -0.61497
C         -3.54730       -6.65007       -0.21325
C         -2.07337       -6.63901       -0.66422
C         -1.34597       -5.36596       -0.17137
C         -1.21888       -5.46523        1.34796
C         -0.39541       -6.69438        1.78184
C          0.00630       -6.71152        3.27776
C         -0.36289       -5.45347        4.10048
C         -1.71535       -5.58483        4.79008
C         -1.68784       -6.83593        5.69825
C         -2.81394       -6.89415        6.77342
C         -3.71948       -5.63397        6.79644
C         -4.63971       -5.68819        5.56693
C         -5.54835       -6.94550        5.60576
C         -6.56054       -7.02897        4.43578
C         -6.19260       -8.18595        3.48294
C         -6.75383       -8.10183        2.07866
C         -6.21008       -9.30096        1.27978
C         -6.44832       -9.14887       -0.21818
C         -5.79381       -7.85700       -0.72190
C         -4.23976       -7.88083       -0.83194
C         -3.55753       -9.17655       -0.35681
C         -2.07501       -9.17707       -0.73544
C         -1.34071       -7.93305       -0.20452
C         -1.11230       -7.98104        1.32714
C         -0.27730       -9.20948        1.70689
C          0.09010       -9.29571        3.19780
C         -0.21010       -8.04253        4.04749
C         -1.54290       -8.11300        4.83075
C         -1.55294       -9.36757        5.71848
C         -2.70992       -9.44002        6.73177
C         -3.63437       -8.20834        6.77693
C         -4.64373       -8.21652        5.63019
C         -5.48614       -9.50397        5.52814
C         -6.30145       -9.53207        4.21871
C          1.45078        0.29467        4.49018
C          0.96430       -1.19205        4.20095
C          1.98257       -2.08976        3.54754
C          2.15209       -1.81921        2.04351
C          1.03588       -1.03792        1.35281
C          1.42678        0.44368        1.02880
C          2.71087        0.41502        0.17760
C          3.42613        1.73182        0.46684
C          2.50461        3.02239        0.30421
C          3.29046        4.43658        0.18768
C          4.82488        4.35667        0.51375
C          5.30254        5.25900        1.70269
C          4.09645        5.79386        2.53322
C          4.51088        6.38549        3.88076
C          5.45047        5.43004        4.68673
C          4.73743        4.09895        4.98135
C          3.36173        4.23549        5.60076
C          2.55165        2.89747        5.32621
C          3.49942        1.65549        5.07467
C          2.85967        0.25273        5.10753
C          3.84451       -0.77205        4.48796
C          3.26805       -2.18049        4.32394
C          4.24593       -3.05714        3.50679
C          4.38455       -2.60539        2.00785
C          3.53945       -1.37706        1.70714
C          3.53686       -0.90741        0.27218
C          4.92824       -0.80451       -0.32801
C          5.60583        0.46577        0.19765
C          4.82269        1.78560       -0.14723
C          5.46541        2.92943        0.61733
C          7.00776        2.99967        0.58721
C          7.52091        3.91418        1.75245
C          6.32943        4.45947        2.57886
C          6.73127        5.13063        3.89949
C          7.65265        4.19621        4.73576
C          6.94339        2.87013        5.09559
C          5.57012        3.04870        5.75223
C          4.83335        1.66618        5.85714
C          5.75932        0.50157        5.37341
C          5.10811       -0.87779        5.32527
C          6.13347       -1.83886        4.67663
C          5.56873       -3.20516        4.25149
C          6.57301       -4.01121        3.39307
C          6.59702       -3.67204        1.87818
C          5.80213       -2.40847        1.52314
C          5.74280       -2.10025       -0.00319
C          7.12846       -1.96355       -0.60960
C          7.82503       -0.76763        0.01655
C          7.07350        0.55267       -0.24009
C          7.66341        1.60024        0.68107
C          9.19015        1.72291        0.64863
C          9.68929        2.58925        1.81699
C          8.51910        3.13566        2.64827
C          8.92365        3.86753        3.93612
C          9.84006        2.99420        4.80554
C          9.16947        1.66929        5.15386
C          7.83379        1.86995        5.88958
C          7.09053        0.51652        6.14813
C          7.99160       -0.71559        5.86336
C          7.24548       -2.03051        5.69216
C         -4.22001        0.19014        8.48639
C         -3.04689       -0.56778        7.76469
C         -1.86936       -0.76321        8.68805
C         -0.75636       -1.59096        8.10084
C         -0.45066       -1.16956        6.69940
C          0.20248        0.25720        6.76065
C          1.46822        0.22692        7.65663
C          1.37459        1.51537        8.49437
C          1.16297        2.84297        7.63458
C          1.43565        4.23094        8.48041
C          1.19611        3.84778        9.94845
C          0.58810        4.89168       10.90918
C         -0.56016        5.64080       10.15728
C         -1.66846        6.24741       11.07534
C         -2.14190        5.24240       12.17391
C         -2.85758        3.99572       11.57988
C         -4.06600        4.28274       10.65103
C         -4.31420        2.88952        9.78803
C         -3.72032        1.57321       10.49958
C         -4.26950        0.21683        9.99119
C         -3.58672       -1.04662       10.56659
C         -2.12827       -1.12697       10.14772
C         -1.37000       -2.39250       10.64433
C          0.10495       -2.48474       10.09372
C          0.31190       -1.39248        9.08155
C          1.64182       -1.10903        8.46299
C          2.69603       -1.03914        9.56156
C          2.48072        0.23302       10.40023
C          2.46133        1.58323        9.58382
C          2.23465        2.82457       10.52260
C          1.83459        2.32408       11.92121
C          1.25803        3.39655       12.84632
C          0.07589        4.04986       12.09533
C         -0.92052        4.78980       13.00558
C         -1.37375        3.86016       14.15224
C         -2.04012        2.58544       13.59399
C         -3.21006        2.89468       12.64544
C         -3.77353        1.56706       12.03954
C         -3.07100        0.27356       12.62316
C         -3.64603       -1.05976       12.08330
C         -2.88998       -2.31623       12.64525
C         -1.40968       -2.39508       12.16287
C         -0.55595       -3.57583       12.68388
C          0.91910       -3.54059       12.15930
C          1.17221       -2.39095       11.16088
C          2.58119       -2.31022       10.47375
C          3.72289       -2.25900       11.47391
C          3.58602       -1.03384       12.36662
C          3.42782        0.31375       11.61125
C          2.96483        1.46212       12.56383
C          2.52647        0.93670       13.94632
C          1.98243        2.04348       14.82680
C          0.79355        2.64479       14.09865
C         -0.15339        3.45387       14.99204
C         -0.63850        2.61344       16.17857
C         -1.29477        1.32445       15.69904
C         -2.45057        1.58835       14.71730
C         -3.06501        0.26997       14.15815
C         -2.38919       -1.00890       14.71518
C         -2.99378       -2.29502       14.16229
C         -4.97272        3.27243       -3.37829
C         -4.76764        4.66699       -4.18805
C         -3.67481        4.33906       -5.22892
C         -2.56606        5.36161       -5.54021
C         -2.12993        5.99283       -4.18130
C         -0.66647        6.54050       -4.15443
C          0.36136        5.59619       -4.85377
C          0.64944        4.29613       -4.07526
C          0.82250        4.33850       -2.71909
C          1.01685        2.94001       -1.95690
C          0.61821        1.69042       -2.82394
C          0.91071        0.34368       -2.15732
C          0.02792        0.25980       -0.92744
C         -1.43634       -0.24386       -1.08151
C         -1.81829       -0.43374       -2.53178
C         -3.10610       -1.17779       -2.72250
C         -4.15940       -0.76237       -1.74068
C         -4.64932        0.67477       -2.15335
C         -5.14518        0.66219       -3.62230
C         -4.60865        1.96760       -4.22199
C         -4.83488        2.05738       -5.74261
C         -4.10485        3.31629       -6.33522
C         -2.91722        2.83977       -7.19072
C         -1.90152        3.92493       -7.54823
C         -1.43409        4.54135       -6.21376
C         -0.08885        5.28776       -6.29191
C          0.98788        4.43271       -7.01383
C          1.50569        3.19634       -6.19737
C          0.71995        2.98752       -4.89246
C          1.32397        1.78694       -4.15651
C          1.16803        0.51688       -5.04443
C          1.51219       -0.80627       -4.32207
C          0.67957       -0.89702       -3.05170
C         -0.77063       -0.99839       -3.47832
C         -1.17587       -2.16784       -4.41678
C         -2.69758       -2.11674       -4.83365
C         -3.37958       -0.96045       -4.14412
C         -4.81907       -0.65670       -4.40644
C         -5.03778       -0.55242       -5.91258
C         -4.34805        0.72242       -6.42934
C         -4.36032        0.83936       -7.96240
C         -3.39956        1.98804       -8.40534
C         -2.19230        1.46971       -9.20962
C         -1.24603        2.59458       -9.57409
C         -0.75476        3.20167       -8.27218
C          0.50413        4.05666       -8.42583
C          1.62403        3.29158       -9.16741
C          2.25459        2.13919       -8.36712
C          1.51508        1.90032       -7.05563
C          2.00034        0.65365       -6.31918
C          1.79882       -0.57924       -7.22073
C          2.10808       -1.88971       -6.49300
C          1.22993       -2.03300       -5.25256
C         -0.27412       -2.12247       -5.64340
C         -0.68620       -3.24714       -6.61712
C         -2.19637       -3.17448       -7.00765
C         -2.92410       -1.99644       -6.32805
C         -4.45272       -1.82682       -6.61622
C         -4.74840       -1.71209       -8.10278
C         -4.04339       -0.49495       -8.68698
C         -3.62890       -1.38338       -0.40256
C         -2.06875       -1.37630       -0.22012
C         -6.19602       -1.42344        0.49599
C         -6.84458       -1.53492        1.91433
C         -6.72234       -1.69131        4.63798
C         -5.66584       -1.71384        5.80379
C         -3.04791       -1.67168        6.65356
C         -1.67152       -1.68641        5.89283
C         -0.29970       -1.52299        1.88961
C         -0.35279       -1.52573        3.46071
C         -9.40801        2.70999        3.45821
C         -8.58429        1.25273        3.37717
C         -5.93528        2.98960       -2.13251
C         -5.68263        1.53544       -1.37324
C          0.43763        1.27249        0.16600
C          1.08399        2.69956       -0.37468
C          0.56188        1.12623        5.52723
C          1.20855        2.56369        6.04640
C         -5.48163        2.55354        8.72279
C         -5.26406        1.13005        7.86156
C          2.35546        6.75761        8.04771
C          3.47187        6.18872        7.16903
C          0.30729        8.14815        9.50603
C         -5.37699        6.73545       10.78100
C          3.41915        8.31259        5.08367
C          2.85773        7.35654        9.39633
C         -6.81335        6.16716       10.71803
C         -3.15121        8.40815       10.51812
C          4.67071        7.17303        7.03169
C          2.78615        6.89205       -0.78364
C         -2.32845        9.75742       10.19947
C         -0.16787        9.55713        8.81970
C          1.78034        8.33023        9.90465
C          3.46760        8.31060        1.65840
C          2.33453        6.29307       -2.13351
C          4.24468        8.49125        6.34996
C         -8.08741        8.30250        9.02639
C          2.70490        9.69270        4.69314
C          4.14838        8.20201        9.22740
C          2.65048        9.69962        2.02415
C         -8.74423        9.62863        8.33595
C          5.24878        7.50473        8.40781
C         -2.89798       12.34387        8.76826
C         -5.01493        7.49873       12.10480
C         -4.07825        8.65053       11.72952
C         -2.31088       15.68123        6.49483
C         -3.54677       15.55131        7.40934
C         -0.39508       15.75933        4.29374
C          4.18145        7.58060       -0.79374
C         -4.16224       13.05687        8.19523
C         -7.86125        7.13513       11.35782
C         -0.84576       15.73476        2.85494
C          4.17570        8.61905        0.34066
C         -6.28516       15.65970        6.22831
C         -7.44108       12.19462        7.55351
C         -6.96083       15.56727        4.89990
C         -9.82209        9.48115        5.90870
C         -6.85339       13.65246        7.45914
C          0.31507        8.40505       -2.58904
C        -10.59360        8.09777        6.28760
C         -8.05207        8.47034       10.57426
C         -1.95460       15.68689        0.21659
C         -3.07983       11.01420       10.79146
C          2.11586        9.43314       10.95245
C         -9.00684       12.54574        5.76645
C         -3.46797       15.75341        0.07608
C         -6.50554       15.67338        2.28150
C          0.71363       10.81371        9.27945
C         -6.28430       15.70272        0.79846
C          2.58546        7.28330       -3.29922
C         -0.68923       12.29058        7.73076
C        -11.95935        6.18375        4.38255
C         -8.52696       13.52710        4.62748
C          5.39942        9.50458        6.14227
C         -2.60706       12.36856       10.25595
C          1.31391       12.26075        4.81774
C        -11.63063        6.93266        3.09831
C          4.63803        8.76909       10.56936
C          3.36019       10.92117        5.41228
C          6.48949        8.41953        8.23609
C          1.30625       12.41321        2.16667
C         -0.51536        9.77854       -2.77411
C         -6.18861        8.23552       12.78123
C         -8.53676       14.05221        1.92520
C         -8.50570       10.86314        9.26804
C         -1.00881       13.82752        7.39995
C          3.30456       11.00724        1.39661
C        -10.80540        8.72483        1.23808
C          1.75760        8.58372       -3.15101
C         -7.49553        7.44767       12.81104
C         -9.00078       12.59119        1.49670
C         -3.62909        9.63839       12.87239
C          4.43442        8.40373       -2.06819
C         -2.22100       16.90679        5.54410
C          1.29065       10.74751       10.71767
C          0.72955       13.70460        5.10898
C        -10.31063       10.03725        0.46322
C          3.60925        9.81593       10.97927
C         -0.79130       17.02897        5.08094
C         -4.42731       16.83447        7.39956
C          0.09095       12.22288        9.05135
C         -1.69548        9.96359        8.76418
C         -8.63553       12.20974        8.56443
C         -5.27959       16.80684        6.14767
C         -5.19595       13.25477        9.26817
C          6.14496        9.72175        7.47170
C          5.31385        9.66327        0.44525
C         -1.42820       17.03183        2.24128
C         -3.19065       12.41196       -1.87650
C         -3.06010        9.84966       -3.18309
C         -3.68658       13.82218       -1.34071
C         -3.00876       10.97024       12.32345
C          4.07496        7.65919       -3.36584
C          4.90301       10.87868        5.56168
C         -3.20673        8.50961       -4.09416
C         -6.59034       13.67284       -0.57409
C          0.72995       13.92208        2.18126
C         -5.81646        7.17004       -4.00965
C         -7.45713       12.37869       -0.49920
C         -6.39658       14.04661        8.83187
C         -7.25355        6.58010       -3.96275
C          2.84847       12.32170        5.04451
C         -8.45581        9.85093       -1.34687
C         -8.86789        8.48931       -2.14228
C        -10.86139       10.66803        5.71544
C         -1.29775       16.98081        0.73192
C         -7.55882       16.86440        4.28858
C        -12.04250        8.27744        5.83624
C        -10.33203       12.03497        5.24852
C         -7.23792       16.95442        2.78357
C          2.83336       12.40308        1.92533
C         -9.17625        9.37044       11.20851
C          5.94794        9.55352       10.38229
C        -12.81638        7.02734        5.38321
C         -4.13131       16.99230        0.70330
C         -1.95903       11.40827        7.99254
C         -5.60168       17.00418        0.32211
C          7.03938        8.78851        9.62116
C          4.84791       10.95310        1.22220
C         -0.73007       12.23641       -1.01661
C         -9.51994       14.60094        4.24986
C         -0.67482       13.65191       -0.34997
C         -9.40241       10.74575       10.49343
C        -12.84845        7.64722        2.42375
C         -3.24746       13.60989       10.92035
C         -9.66061       14.74594        2.73002
C         -5.76523        8.86264       14.12445
C          5.84229        9.01914       -2.04453
C          0.21411       14.70391        7.45192
C        -12.35677        8.73920        1.40813
C         -4.82100       10.01452       13.77807
C          1.20475       14.09080        6.48161
C          5.82954       10.08324       -0.94492
C          0.48074       10.96916       -2.77288
C          1.89813       10.03446        3.38269
C        -10.32921       12.64046        0.69667
C         -2.75659       18.25916        6.13258
C        -11.00375       11.31449        1.06637
C         -3.57509       18.11869        7.42248
C         -4.74511       13.65708       10.66900
C         -8.61706        8.28501       13.47163
C         -0.58779       18.34042        4.27940
C          1.08403       11.49319        3.44225
C          3.97635       10.72637       12.19621
C          1.95158        9.58276       -4.34242
C         -4.27396       14.18793        7.12511
C         -0.71999       18.31185        2.74852
C          2.19053       12.01587       11.00327
C         -8.70436       13.48413        9.48326
C         -5.81360       18.19615        5.65030
C         -5.74000       14.24571        6.54975
C          1.15787       13.32496        9.25521
C         -2.81633       12.49326       -3.36945
C         -3.40903       11.20623       -3.98247
C         -4.76852       14.38313       -2.23440
C         -4.33339        8.86135       -5.08137
C         -6.06226       13.67412       -1.96911
C         -7.31739       13.77949        9.93644
C         -5.47150        7.86580       -5.35714
C         -8.57426       12.45649       -1.53984
C         -8.88555        9.60134       12.70082
C         -8.36054        7.51683       -4.52756
C         -8.54294       11.13532       -2.29259
C         -8.56805        8.75836       -3.63377
C        -12.02705       10.71857        6.72335
C         -1.67956       14.29199        6.09777
C          4.33859        8.55117       -4.60318
C          7.35188       10.69902        7.32390
C         -7.25151       18.14385        5.11848
C        -12.78031        9.33000        6.71575
C         -3.62702       12.26140       12.97361
C          1.23281       14.74621        1.02603
C         -0.01422       12.36277       -2.38292
C          3.33460       13.24979        6.20280
C         -1.92778       18.25319        0.08702
C         -8.59488        9.97462        6.77765
C          6.40023       10.15400       11.70061
C          5.41368       12.06482        6.45066
C        -11.39422       13.18048        5.09535
C         -3.48308       18.27486        0.11618
C          8.29810        9.64783        9.43689
C         -6.45869       18.23573        2.40422
C         -8.01660       11.46429        6.32276
C         -6.31669       18.27819        0.87335
C        -14.12927        7.48472        4.70913
C         -0.66350       14.35030        4.90146
C          0.77603       14.03229       -0.23748
C        -10.78372       14.59121        5.05703
C         -7.19542       14.15977        4.23221
C          3.33717       13.48135        0.93207
C          0.75664       14.74488        8.82825
C         -3.03752       13.58295       12.43126
C          1.25615       10.96784       -4.10001
C        -13.79689        8.32203        3.45122
C          2.94829       11.89780       12.33558
C          2.60280       14.55236        6.46176
C          5.41535       11.25786       12.03205
C          5.36200       12.23782        0.47942
C          3.46023        9.82230       -4.58461
C          1.61048       13.38369       10.69266
C          6.11694        9.78341       -3.34338
C         -6.95415        9.51637       14.83794
C         -7.17831       14.31882        2.68176
C         -9.27167       11.98821       11.43179
C        -11.05686       14.30566        2.39030
C          7.97477       10.94874        8.70822
C          6.94314       12.03416        6.61272
C         -8.20402        8.62914       14.90986
C         -0.78304       14.31964        2.17539
C        -13.01202       10.14401        1.66894
C         -4.40479       10.91843       14.98223
C          4.83478       13.44615        6.17411
C        -11.16145       13.93774        0.94023
C          7.09696       10.98747       -0.85128
C         -1.82818       19.49860        6.22910
C        -12.49514       11.25470        0.76399
C          5.82029        8.97120       -4.61584
C         -0.86628       19.66332        5.02810
C          2.71492       14.87872        1.06346
C         -4.46528       19.37230        7.58158
C         -9.59154       13.31768       10.71208
C         -5.49210       14.87192       11.28232
C         -5.69341       19.39565        6.62679
C         -3.59459       12.17033       14.50634
C         -1.47631       14.30317        0.77448
C         -5.63408       14.34916        0.39641
C         -7.03088       14.86889       10.94178
C         -1.36625       19.59001        2.15188
C         -3.18900       13.85321       -4.06956
C         -3.24303       11.18435       -5.51677
C         -4.59602       14.15765       -3.67728
C          4.84872       13.58749        0.95328
C         -3.97971        9.94884       -6.14386
C         -7.13663       13.85803       -3.03107
C         -4.09521       14.33179        0.07856
C         -6.64000        8.71831       -5.90659
C         -8.51895       13.73219       -2.42251
C         -7.98026        7.96212       -5.95276
C         -9.62776       11.13533       -3.38388
C         -9.56845        9.81431       -4.21461
C        -13.02371       11.89074        6.38753
C         -1.27996       19.55046        0.62389
C        -14.21166        9.55280        6.22091
C         -7.62086       19.45780        4.38339
C        -12.40623       13.26736        6.20948
C          6.86933       12.15168        0.17260
C          1.25578       13.27783       -2.36984
C         -9.96537       10.48349       13.38684
C         -7.18283       19.51347        2.89726
C        -14.98070        8.31202        5.71813
C         -4.10810       19.56689        0.69127
C          1.23229       14.55013       -1.54011
C         -5.61797       19.57466        0.39924
C          2.00049       15.63897        8.76831
C          3.05052       14.94387        7.86931
C        -11.77199       15.60295        4.45728
C         -2.09179       11.48543       -1.24709
C          7.50108       10.41039       -3.29554
C        -10.18985       11.83933       12.65359
C         -3.72536       14.81896       13.09442
C        -15.02005        9.01494        2.77581
C          7.45462       11.51755       -2.25519
C         -6.51083       10.11476       16.15993
C          2.26454       12.15600       -4.21675
C        -11.97870       15.40422        2.92083
C         -8.05222       11.62575        0.70771
C         -5.63590       11.30965       15.82724
C          3.63445       13.20562       12.83479
C        -14.54267        9.97875        1.63095
C         -1.91388       10.06544       -2.09576
C          2.76140       14.40549       10.85065
C          3.74792       10.82119       -5.75434
C         -5.25098       14.86188       12.78457
C         -9.36865        9.35966       15.58757
C        -12.61738       13.80264        0.50529
C         -2.71301       20.77140        6.40087
C        -13.25343       12.55174        1.12689
C         -3.63527       20.68031        7.61597
C          5.32529       14.31793        7.35676
C          7.55328       13.29249        7.30964
C         -1.27370       20.87843        4.17266
C          6.07925        9.80676       -5.87389
C         -9.40471       14.54301       11.67747
C          3.09161       15.73905       -0.15465
C          1.77107       13.52034       -3.76675
C         -0.77084       20.88438        2.74338
C         -7.92317       14.68635       12.15007
C         -5.89570       20.72630        5.86228
C         -3.08993       13.81157       -5.59430
C         -3.77689       12.54158       -6.12453
C         -9.67173       10.67636       14.88379
C         -8.76751       10.20830        0.19442
C         -5.42376       15.24399       -4.34390
C         -5.21601       10.44769       -6.91141
C         -6.91533       15.14003       -3.84549
C         -6.24809        9.37415       -7.24686
C         -4.06077       13.48217       15.18895
C         -9.57150       13.75150       -3.50552
C        -14.21183       11.86248        7.36484
C         -9.09327        8.86115       -6.54158
C         -9.48883       12.42595       -4.28808
C          2.53501       15.79075       10.18664
C         -9.28590       10.13140       -5.68863
C         -7.30126       20.72735        5.21869
C        -15.01125       10.53351        7.13953
C          2.69188       14.98348       -1.44765
C         -1.92627       20.80978        0.00780
C          4.45705       15.50970        7.82652
C          5.34560       14.61176       -0.09056
C        -13.52828       14.26097        5.78483
C          2.93870       12.15366       -5.59506
C         -3.48445       20.83121        0.06388
C          3.03667       14.51987       12.33574
C         -6.43896       20.80693        2.50080
C         -6.30647       20.84100        0.96384
C          7.53113       13.47765       -0.30454
C        -16.24783        8.82740        5.01817
C          5.25960       11.09107       -5.84748
C        -13.04156       15.65474        5.30785
C         -3.45126       14.74825       14.59105
C          6.79122       14.60730        7.13102
C        -15.79108        9.75754        3.87790
C        -10.09424       13.07507       13.58024
C          4.59736       15.96636       -0.13058
C        -13.41624       15.18545        2.49963
C        -15.40787       11.27789        1.43319
C        -13.41742       15.05855        0.94514
C        -14.70548       12.40513        0.64651
C         -1.86069       22.05495        6.34199
C        -10.36362       14.38415       12.84726
C          6.83665       14.76836        0.12362
C         -1.12434       22.17283        4.99085
C         -6.08645       15.97929       13.44227
C         -4.54564       21.91423        7.74095
C         -5.77536       21.92681        6.81647
C         -7.61105       15.84188       13.12718
C          3.03597       14.40878       -3.77732
C         -1.35086       22.13223        2.05253
C         -3.76803       15.08822       -6.20804
C         -3.84049       12.49166       -7.66445
C         -5.28894       15.15306       -5.84234
C         -4.80078       11.34550       -8.11454
C          3.83254       16.61207       10.09412
C         -7.91998       15.12499       -4.98932
C          3.12435       15.58517       -2.77584
C         -7.42943       10.11858       -7.88352
C         -9.36954       15.01575       -4.41333
C         -8.71046        9.28068       -7.96652
C        -15.12894       13.11784        7.29613
C          4.90737       15.89483        9.25131
C        -10.48184       12.42163       -5.45574
C        -10.34840       11.10440       -6.28092
C         -1.22448       22.06678        0.53527
C        -16.40215       10.81763        6.54457
C         -7.62532       22.02518        4.45530
C        -14.42342       14.43288        6.99826
C         -7.22877       22.03756        2.97106
C        -17.10732        9.56251        6.05449
C         -4.11316       22.10003        0.66600
C         -5.62304       22.11339        0.43133
C          3.79298       13.42687       -5.90163
C        -14.14747       16.48470        4.60718
C        -16.83938       10.69761        3.34436
C        -14.24483       16.34612        3.06105
C        -16.03455       11.80376        2.72393
C          4.95263       16.78402       -1.38557
C          3.34729       14.72715       -5.22352
C        -14.80385       14.97261        0.32198
C        -15.53198       13.71211        0.76792
C          4.59699       16.03225       -2.68475
C         -3.53477       15.05966       -7.70787
C         -4.21781       13.84612       -8.31995
C         -6.13346       16.29884       -6.44753
C         -6.04690       11.87254       -8.85476
C         -7.61029       16.31365       -5.92506
C         -7.01140       10.75488       -9.19650
C        -10.43220       14.99175       -5.50178
C         -9.86796       10.09148       -8.56266
C        -10.33281       13.70427       -6.31471
C        -10.09982       11.37475       -7.77447
C        -10.64482        5.63779        4.99419
C        -10.07762        6.55998        6.18711
C         -8.29249        6.75183        8.62970
C         -7.24274        5.68734        9.29209
C         -2.85148        6.82854       10.24705
C         -4.17261        5.87251       10.19767
C          1.10183        5.81896        8.17240
C         -0.01615        6.60293        9.03544
C          3.23226        6.79373        4.64909
C          2.88873        5.73992        5.80764
C          2.64835        5.91954        0.42142
C          3.08220        6.70788        1.74851
C         -0.19180        6.88741       -2.71360
C          0.85497        5.78838       -2.10357
C         -4.66955        6.17932       -3.56540
C         -3.24510        6.94893       -3.58931
C         -8.59713        6.95251       -1.68427
C         -7.62525        6.00440       -2.57471
C        -10.63746        6.18834        2.11698
C        -10.36024        7.20729        0.89191
