156
	Energy:    1309.6286475
C         -6.81374        1.19081        2.83234
C         -8.14124        0.77203        3.51956
C         -9.07277       -0.26333        2.85555
C         -9.78678       -1.09179        3.90978
C         -9.60772       -0.68358        5.41499
C         -8.21116       -1.14400        5.98593
C         -5.36379       -1.04787        6.14645
C         -5.62166       -0.18941        4.92122
C         -5.23301        1.26572        5.00467
C         -5.94716        2.06666        3.83821
C         -6.76011        3.27896        4.38476
C         -7.97307        2.73127        5.16653
C         -8.89465        1.72230        4.45769
C         -9.73558        0.89448        5.52470
C         -9.53552        1.40284        6.98907
C         -8.11727        1.03093        7.45027
C         -7.65110       -0.42970        7.27567
C         -6.06012       -0.44415        7.36402
C         -5.39152        0.92287        7.62168
C         -5.60700        1.82940        6.38817
C         -5.17133        3.27918        6.51075
C         -5.86693        4.12308        5.36364
C         -6.67649        5.32283        5.92060
C         -7.89530        4.77536        6.69151
C         -8.79114        3.73575        5.98836
C         -9.68118        2.96311        7.04661
C         -9.47441        3.47465        8.50320
C         -8.05871        3.09546        8.96850
C         -7.61247        1.64006        8.78202
C         -6.03412        1.56904        8.86395
C         -5.34320        2.93445        9.13424
C         -5.52340        3.84658        7.89972
C         -5.12364        5.31354        8.01816
C         -5.75452        6.13774        6.86849
C         -8.70952        5.76252        7.52642
C         -9.63570        5.01565        8.51602
C         -7.54483        3.68804       10.28394
C         -6.00453        3.56787       10.38019
C         -6.07663       -0.14579        2.47939
C         -5.26825       -0.78965        3.57839
C         -4.13366       -0.07144        0.85105
C         -3.16565       -0.42049        2.03253
C         -2.16825        0.02290       -0.74384
C         -1.16292       -0.28761        0.40565
C         -5.55357       -0.59942        1.12463
C         -0.21610        0.19598       -2.34753
C          0.80590       -0.15879       -1.24979
C         -3.79711       -1.16435        3.24229
C         -3.55316       -0.59393       -0.45818
C         -1.77509       -1.00465        1.62409
C         -1.58458       -0.43397       -2.07923
C          0.20030       -0.88757       -0.03470
C         -6.57912       -0.72384       -0.01417
C         -3.54033       -2.69231        3.25842
C         -4.54558       -0.58191       -1.62654
C         -1.62571       -2.56259        1.62658
C         -2.57489       -0.41898       -3.24756
C          0.33613       -2.44214       -0.01384
C         -7.76198       -1.61420        0.51071
C         -5.84180       -1.36553       -1.24538
C         -2.86639       -3.35222        2.05828
C         -3.86926       -1.18774       -2.87795
C         -0.92025       -3.21969        0.42454
C         -1.94728       -1.02974       -4.51071
C          1.04017       -3.10451       -1.21744
C         -7.60252       -3.11665        0.27584
C         -5.66458       -2.93983       -1.22342
C         -3.79791       -3.88194        0.92099
C         -3.72765       -2.75322       -2.86713
C         -1.85672       -3.68595       -0.72885
C         -1.80639       -2.56819       -4.50536
C         -6.23516       -3.70161        0.00112
C         -5.29815       -3.60864        1.23366
C          0.08859       -3.54926       -2.34532
C         -4.27149       -3.47088       -1.60787
C         -3.31574       -3.30152       -0.42676
C         -2.32631       -3.28588       -3.24539
C         -1.35601       -3.13243       -2.06806
C        -14.16863       -3.54072       -3.49740
C        -14.54647       -2.09713       -3.08699
C        -11.98581       -3.38990       -2.25002
C        -12.31961       -1.88935       -1.87128
C         -9.76953       -3.23544       -1.00801
C        -10.07694       -1.70747       -0.68971
C        -13.24743       -4.26795       -2.48709
C        -13.84378       -1.69575       -1.78862
C        -11.04469       -4.09520       -1.23013
C        -11.60250       -1.50414       -0.56153
C         -8.85480       -3.95501        0.03673
C         -9.27630       -1.23850        0.54599
C        -13.98128       -4.46791       -1.14578
C        -14.37422       -0.46132       -1.03536
C        -11.78781       -4.24885        0.11604
C        -12.11845       -0.26294        0.19340
C         -9.59810       -4.05832        1.37333
C         -9.81305       -0.11314        1.47089
C        -15.36239       -5.11914       -1.16803
C        -15.90874       -0.58425       -0.82483
C        -13.16216       -4.91853        0.07753
C        -13.68413       -0.39555        0.35591
C        -10.98138       -4.69940        1.35445
C        -11.41283       -0.21023        1.59348
C        -16.11199       -4.84271        0.15804
C        -16.34404       -1.79010        0.04316
C        -13.94751       -4.58714        1.41175
C        -14.15107       -1.57249        1.30709
C        -11.76635       -4.34120        2.68353
C        -11.99201       -1.30746        2.57744
C        -15.33532       -3.94613        1.15902
C        -15.12274       -2.53030        0.57907
C        -13.14908       -3.70665        2.42386
C        -12.92079       -2.29843        1.83057
C        -10.99975       -3.45340        3.72136
C        -10.85118       -2.00960        3.27291
C         -7.06258       -9.09215        9.54293
C         -5.55702       -8.88741        9.80360
C         -7.21484       -6.93852        8.23758
C         -5.70340       -6.68395        8.50931
C         -7.38780       -4.73610        6.98395
C         -5.86650       -4.49692        7.23131
C         -7.49987       -8.44078        8.23300
C         -7.48156       -2.48987        5.55636
C         -6.00264       -2.37799        5.93758
C         -4.86005       -7.93931        8.80622
C         -7.65122       -6.25232        6.93670
C         -5.00971       -5.74135        7.51564
C         -7.89142       -4.00121        5.71617
C         -5.15809       -3.58017        6.24927
C         -8.88587       -8.84213        7.71433
C         -4.13610       -8.59174        7.58626
C         -9.04009       -6.66089        6.44336
C         -4.30829       -6.40003        6.27842
C         -9.25563       -4.48694        5.22547
C         -4.51418       -4.23290        5.01718
C         -9.02506      -10.36763        7.60209
C         -4.17376      -10.12666        7.50219
C         -9.16612       -8.18756        6.34282
C         -4.34325       -7.92658        6.20355
C         -9.32599       -6.01014        5.08665
C         -4.52277       -5.74363        4.89433
C         -9.57711       -3.92165        3.88925
C         -4.70774       -3.52502        3.70524
C         -8.30349      -11.01672        6.40015
C         -5.30840      -10.67844        6.61813
C         -8.44054       -8.84514        5.11205
C         -5.48948       -8.50656        5.32440
C         -8.60898       -6.63998        3.82349
C         -5.62943       -6.34161        3.96663
C         -8.78314       -4.35143        2.64823
C         -7.54405      -10.05145        5.47157
C         -6.24289       -9.57386        6.11730
C         -5.77983       -3.97034        2.70471
C         -7.71549       -7.86316        4.14928
C         -6.41028       -7.38558        4.78350
C         -7.93228       -5.63762        2.81352
C         -6.52024       -5.23213        3.31312
